
---------- Begin Simulation Statistics ----------
sim_seconds                                  1.509056                       # Number of seconds simulated
sim_ticks                                1509056159500                       # Number of ticks simulated
final_tick                               1509056159500                       # Number of ticks from beginning of simulation (restored from checkpoints and never reset)
sim_freq                                 1000000000000                       # Frequency of simulated ticks
host_inst_rate                                 694258                       # Simulator instruction rate (inst/s)
host_op_rate                                   890401                       # Simulator op (including micro ops) rate (op/s)
host_tick_rate                             2095348618                       # Simulator tick rate (ticks/s)
host_mem_usage                                 827744                       # Number of bytes of host memory used
host_seconds                                   720.19                       # Real time elapsed on the host
sim_insts                                   500000001                       # Number of instructions simulated
sim_ops                                     641260670                       # Number of ops (including micro ops) simulated
system.voltage_domain.voltage                       1                       # Voltage in Volts
system.clk_domain.clock                          1000                       # Clock period in ticks
system.mem_ctrls.bytes_read::cpu.inst           33728                       # Number of bytes read from this memory
system.mem_ctrls.bytes_read::cpu.data       447102912                       # Number of bytes read from this memory
system.mem_ctrls.bytes_read::total          447136640                       # Number of bytes read from this memory
system.mem_ctrls.bytes_inst_read::cpu.inst        33728                       # Number of instructions bytes read from this memory
system.mem_ctrls.bytes_inst_read::total         33728                       # Number of instructions bytes read from this memory
system.mem_ctrls.bytes_written::writebacks    435601920                       # Number of bytes written to this memory
system.mem_ctrls.bytes_written::total       435601920                       # Number of bytes written to this memory
system.mem_ctrls.num_reads::cpu.inst              527                       # Number of read requests responded to by this memory
system.mem_ctrls.num_reads::cpu.data          6985983                       # Number of read requests responded to by this memory
system.mem_ctrls.num_reads::total             6986510                       # Number of read requests responded to by this memory
system.mem_ctrls.num_writes::writebacks       6806280                       # Number of write requests responded to by this memory
system.mem_ctrls.num_writes::total            6806280                       # Number of write requests responded to by this memory
system.mem_ctrls.bw_read::cpu.inst              22350                       # Total read bandwidth from this memory (bytes/s)
system.mem_ctrls.bw_read::cpu.data          296279836                       # Total read bandwidth from this memory (bytes/s)
system.mem_ctrls.bw_read::total             296302187                       # Total read bandwidth from this memory (bytes/s)
system.mem_ctrls.bw_inst_read::cpu.inst         22350                       # Instruction read bandwidth from this memory (bytes/s)
system.mem_ctrls.bw_inst_read::total            22350                       # Instruction read bandwidth from this memory (bytes/s)
system.mem_ctrls.bw_write::writebacks       288658522                       # Write bandwidth from this memory (bytes/s)
system.mem_ctrls.bw_write::total            288658522                       # Write bandwidth from this memory (bytes/s)
system.mem_ctrls.bw_total::writebacks       288658522                       # Total bandwidth to/from this memory (bytes/s)
system.mem_ctrls.bw_total::cpu.inst             22350                       # Total bandwidth to/from this memory (bytes/s)
system.mem_ctrls.bw_total::cpu.data         296279836                       # Total bandwidth to/from this memory (bytes/s)
system.mem_ctrls.bw_total::total            584960708                       # Total bandwidth to/from this memory (bytes/s)
system.mem_ctrls.readReqs                     6986510                       # Number of read requests accepted
system.mem_ctrls.writeReqs                    6806280                       # Number of write requests accepted
system.mem_ctrls.readBursts                   6986510                       # Number of DRAM read bursts, including those serviced by the write queue
system.mem_ctrls.writeBursts                  6806280                       # Number of DRAM write bursts, including those merged in the write queue
system.mem_ctrls.bytesReadDRAM              447136640                       # Total number of bytes read from DRAM
system.mem_ctrls.bytesReadWrQ                       0                       # Total number of bytes read from write queue
system.mem_ctrls.bytesWritten               435600384                       # Total number of bytes written to DRAM
system.mem_ctrls.bytesReadSys               447136640                       # Total read bytes from the system interface side
system.mem_ctrls.bytesWrittenSys            435601920                       # Total written bytes from the system interface side
system.mem_ctrls.servicedByWrQ                      0                       # Number of DRAM read bursts serviced by the write queue
system.mem_ctrls.mergedWrBursts                     0                       # Number of DRAM write bursts merged with an existing one
system.mem_ctrls.neitherReadNorWriteReqs       163379                       # Number of requests that are neither read nor write
system.mem_ctrls.perBankRdBursts::0            436730                       # Per bank write bursts
system.mem_ctrls.perBankRdBursts::1            436619                       # Per bank write bursts
system.mem_ctrls.perBankRdBursts::2            436697                       # Per bank write bursts
system.mem_ctrls.perBankRdBursts::3            436671                       # Per bank write bursts
system.mem_ctrls.perBankRdBursts::4            436680                       # Per bank write bursts
system.mem_ctrls.perBankRdBursts::5            436692                       # Per bank write bursts
system.mem_ctrls.perBankRdBursts::6            436621                       # Per bank write bursts
system.mem_ctrls.perBankRdBursts::7            436614                       # Per bank write bursts
system.mem_ctrls.perBankRdBursts::8            436573                       # Per bank write bursts
system.mem_ctrls.perBankRdBursts::9            436622                       # Per bank write bursts
system.mem_ctrls.perBankRdBursts::10           436894                       # Per bank write bursts
system.mem_ctrls.perBankRdBursts::11           436589                       # Per bank write bursts
system.mem_ctrls.perBankRdBursts::12           436672                       # Per bank write bursts
system.mem_ctrls.perBankRdBursts::13           436609                       # Per bank write bursts
system.mem_ctrls.perBankRdBursts::14           436591                       # Per bank write bursts
system.mem_ctrls.perBankRdBursts::15           436636                       # Per bank write bursts
system.mem_ctrls.perBankWrBursts::0            425507                       # Per bank write bursts
system.mem_ctrls.perBankWrBursts::1            425460                       # Per bank write bursts
system.mem_ctrls.perBankWrBursts::2            425467                       # Per bank write bursts
system.mem_ctrls.perBankWrBursts::3            425511                       # Per bank write bursts
system.mem_ctrls.perBankWrBursts::4            425461                       # Per bank write bursts
system.mem_ctrls.perBankWrBursts::5            425426                       # Per bank write bursts
system.mem_ctrls.perBankWrBursts::6            425323                       # Per bank write bursts
system.mem_ctrls.perBankWrBursts::7            425333                       # Per bank write bursts
system.mem_ctrls.perBankWrBursts::8            425292                       # Per bank write bursts
system.mem_ctrls.perBankWrBursts::9            425299                       # Per bank write bursts
system.mem_ctrls.perBankWrBursts::10           425332                       # Per bank write bursts
system.mem_ctrls.perBankWrBursts::11           425291                       # Per bank write bursts
system.mem_ctrls.perBankWrBursts::12           425305                       # Per bank write bursts
system.mem_ctrls.perBankWrBursts::13           425322                       # Per bank write bursts
system.mem_ctrls.perBankWrBursts::14           425446                       # Per bank write bursts
system.mem_ctrls.perBankWrBursts::15           425481                       # Per bank write bursts
system.mem_ctrls.numRdRetry                         0                       # Number of times read queue was full causing retry
system.mem_ctrls.numWrRetry                         0                       # Number of times write queue was full causing retry
system.mem_ctrls.totGap                  1509055535500                       # Total gap between requests
system.mem_ctrls.readPktSize::0                     0                       # Read request sizes (log2)
system.mem_ctrls.readPktSize::1                     0                       # Read request sizes (log2)
system.mem_ctrls.readPktSize::2                     0                       # Read request sizes (log2)
system.mem_ctrls.readPktSize::3                     0                       # Read request sizes (log2)
system.mem_ctrls.readPktSize::4                     0                       # Read request sizes (log2)
system.mem_ctrls.readPktSize::5                     0                       # Read request sizes (log2)
system.mem_ctrls.readPktSize::6               6986510                       # Read request sizes (log2)
system.mem_ctrls.writePktSize::0                    0                       # Write request sizes (log2)
system.mem_ctrls.writePktSize::1                    0                       # Write request sizes (log2)
system.mem_ctrls.writePktSize::2                    0                       # Write request sizes (log2)
system.mem_ctrls.writePktSize::3                    0                       # Write request sizes (log2)
system.mem_ctrls.writePktSize::4                    0                       # Write request sizes (log2)
system.mem_ctrls.writePktSize::5                    0                       # Write request sizes (log2)
system.mem_ctrls.writePktSize::6              6806280                       # Write request sizes (log2)
system.mem_ctrls.rdQLenPdf::0                 6986510                       # What read queue length does an incoming req see
system.mem_ctrls.rdQLenPdf::1                       0                       # What read queue length does an incoming req see
system.mem_ctrls.rdQLenPdf::2                       0                       # What read queue length does an incoming req see
system.mem_ctrls.rdQLenPdf::3                       0                       # What read queue length does an incoming req see
system.mem_ctrls.rdQLenPdf::4                       0                       # What read queue length does an incoming req see
system.mem_ctrls.rdQLenPdf::5                       0                       # What read queue length does an incoming req see
system.mem_ctrls.rdQLenPdf::6                       0                       # What read queue length does an incoming req see
system.mem_ctrls.rdQLenPdf::7                       0                       # What read queue length does an incoming req see
system.mem_ctrls.rdQLenPdf::8                       0                       # What read queue length does an incoming req see
system.mem_ctrls.rdQLenPdf::9                       0                       # What read queue length does an incoming req see
system.mem_ctrls.rdQLenPdf::10                      0                       # What read queue length does an incoming req see
system.mem_ctrls.rdQLenPdf::11                      0                       # What read queue length does an incoming req see
system.mem_ctrls.rdQLenPdf::12                      0                       # What read queue length does an incoming req see
system.mem_ctrls.rdQLenPdf::13                      0                       # What read queue length does an incoming req see
system.mem_ctrls.rdQLenPdf::14                      0                       # What read queue length does an incoming req see
system.mem_ctrls.rdQLenPdf::15                      0                       # What read queue length does an incoming req see
system.mem_ctrls.rdQLenPdf::16                      0                       # What read queue length does an incoming req see
system.mem_ctrls.rdQLenPdf::17                      0                       # What read queue length does an incoming req see
system.mem_ctrls.rdQLenPdf::18                      0                       # What read queue length does an incoming req see
system.mem_ctrls.rdQLenPdf::19                      0                       # What read queue length does an incoming req see
system.mem_ctrls.rdQLenPdf::20                      0                       # What read queue length does an incoming req see
system.mem_ctrls.rdQLenPdf::21                      0                       # What read queue length does an incoming req see
system.mem_ctrls.rdQLenPdf::22                      0                       # What read queue length does an incoming req see
system.mem_ctrls.rdQLenPdf::23                      0                       # What read queue length does an incoming req see
system.mem_ctrls.rdQLenPdf::24                      0                       # What read queue length does an incoming req see
system.mem_ctrls.rdQLenPdf::25                      0                       # What read queue length does an incoming req see
system.mem_ctrls.rdQLenPdf::26                      0                       # What read queue length does an incoming req see
system.mem_ctrls.rdQLenPdf::27                      0                       # What read queue length does an incoming req see
system.mem_ctrls.rdQLenPdf::28                      0                       # What read queue length does an incoming req see
system.mem_ctrls.rdQLenPdf::29                      0                       # What read queue length does an incoming req see
system.mem_ctrls.rdQLenPdf::30                      0                       # What read queue length does an incoming req see
system.mem_ctrls.rdQLenPdf::31                      0                       # What read queue length does an incoming req see
system.mem_ctrls.wrQLenPdf::0                       1                       # What write queue length does an incoming req see
system.mem_ctrls.wrQLenPdf::1                       1                       # What write queue length does an incoming req see
system.mem_ctrls.wrQLenPdf::2                       1                       # What write queue length does an incoming req see
system.mem_ctrls.wrQLenPdf::3                       1                       # What write queue length does an incoming req see
system.mem_ctrls.wrQLenPdf::4                       1                       # What write queue length does an incoming req see
system.mem_ctrls.wrQLenPdf::5                       1                       # What write queue length does an incoming req see
system.mem_ctrls.wrQLenPdf::6                       1                       # What write queue length does an incoming req see
system.mem_ctrls.wrQLenPdf::7                       1                       # What write queue length does an incoming req see
system.mem_ctrls.wrQLenPdf::8                       1                       # What write queue length does an incoming req see
system.mem_ctrls.wrQLenPdf::9                       1                       # What write queue length does an incoming req see
system.mem_ctrls.wrQLenPdf::10                      1                       # What write queue length does an incoming req see
system.mem_ctrls.wrQLenPdf::11                      1                       # What write queue length does an incoming req see
system.mem_ctrls.wrQLenPdf::12                      1                       # What write queue length does an incoming req see
system.mem_ctrls.wrQLenPdf::13                      1                       # What write queue length does an incoming req see
system.mem_ctrls.wrQLenPdf::14                      1                       # What write queue length does an incoming req see
system.mem_ctrls.wrQLenPdf::15                 368544                       # What write queue length does an incoming req see
system.mem_ctrls.wrQLenPdf::16                 368901                       # What write queue length does an incoming req see
system.mem_ctrls.wrQLenPdf::17                 379225                       # What write queue length does an incoming req see
system.mem_ctrls.wrQLenPdf::18                 379270                       # What write queue length does an incoming req see
system.mem_ctrls.wrQLenPdf::19                 379271                       # What write queue length does an incoming req see
system.mem_ctrls.wrQLenPdf::20                 379269                       # What write queue length does an incoming req see
system.mem_ctrls.wrQLenPdf::21                 379268                       # What write queue length does an incoming req see
system.mem_ctrls.wrQLenPdf::22                 379268                       # What write queue length does an incoming req see
system.mem_ctrls.wrQLenPdf::23                 379267                       # What write queue length does an incoming req see
system.mem_ctrls.wrQLenPdf::24                 379271                       # What write queue length does an incoming req see
system.mem_ctrls.wrQLenPdf::25                 379572                       # What write queue length does an incoming req see
system.mem_ctrls.wrQLenPdf::26                 379268                       # What write queue length does an incoming req see
system.mem_ctrls.wrQLenPdf::27                 379280                       # What write queue length does an incoming req see
system.mem_ctrls.wrQLenPdf::28                 379386                       # What write queue length does an incoming req see
system.mem_ctrls.wrQLenPdf::29                 379298                       # What write queue length does an incoming req see
system.mem_ctrls.wrQLenPdf::30                 379371                       # What write queue length does an incoming req see
system.mem_ctrls.wrQLenPdf::31                 379268                       # What write queue length does an incoming req see
system.mem_ctrls.wrQLenPdf::32                 379266                       # What write queue length does an incoming req see
system.mem_ctrls.wrQLenPdf::33                      2                       # What write queue length does an incoming req see
system.mem_ctrls.wrQLenPdf::34                      0                       # What write queue length does an incoming req see
system.mem_ctrls.wrQLenPdf::35                      0                       # What write queue length does an incoming req see
system.mem_ctrls.wrQLenPdf::36                      0                       # What write queue length does an incoming req see
system.mem_ctrls.wrQLenPdf::37                      0                       # What write queue length does an incoming req see
system.mem_ctrls.wrQLenPdf::38                      0                       # What write queue length does an incoming req see
system.mem_ctrls.wrQLenPdf::39                      0                       # What write queue length does an incoming req see
system.mem_ctrls.wrQLenPdf::40                      0                       # What write queue length does an incoming req see
system.mem_ctrls.wrQLenPdf::41                      0                       # What write queue length does an incoming req see
system.mem_ctrls.wrQLenPdf::42                      0                       # What write queue length does an incoming req see
system.mem_ctrls.wrQLenPdf::43                      0                       # What write queue length does an incoming req see
system.mem_ctrls.wrQLenPdf::44                      0                       # What write queue length does an incoming req see
system.mem_ctrls.wrQLenPdf::45                      0                       # What write queue length does an incoming req see
system.mem_ctrls.wrQLenPdf::46                      0                       # What write queue length does an incoming req see
system.mem_ctrls.wrQLenPdf::47                      0                       # What write queue length does an incoming req see
system.mem_ctrls.wrQLenPdf::48                      0                       # What write queue length does an incoming req see
system.mem_ctrls.wrQLenPdf::49                      0                       # What write queue length does an incoming req see
system.mem_ctrls.wrQLenPdf::50                      0                       # What write queue length does an incoming req see
system.mem_ctrls.wrQLenPdf::51                      0                       # What write queue length does an incoming req see
system.mem_ctrls.wrQLenPdf::52                      0                       # What write queue length does an incoming req see
system.mem_ctrls.wrQLenPdf::53                      0                       # What write queue length does an incoming req see
system.mem_ctrls.wrQLenPdf::54                      0                       # What write queue length does an incoming req see
system.mem_ctrls.wrQLenPdf::55                      0                       # What write queue length does an incoming req see
system.mem_ctrls.wrQLenPdf::56                      0                       # What write queue length does an incoming req see
system.mem_ctrls.wrQLenPdf::57                      0                       # What write queue length does an incoming req see
system.mem_ctrls.wrQLenPdf::58                      0                       # What write queue length does an incoming req see
system.mem_ctrls.wrQLenPdf::59                      0                       # What write queue length does an incoming req see
system.mem_ctrls.wrQLenPdf::60                      0                       # What write queue length does an incoming req see
system.mem_ctrls.wrQLenPdf::61                      0                       # What write queue length does an incoming req see
system.mem_ctrls.wrQLenPdf::62                      0                       # What write queue length does an incoming req see
system.mem_ctrls.wrQLenPdf::63                      0                       # What write queue length does an incoming req see
system.mem_ctrls.bytesPerActivate::samples      1661950                       # Bytes accessed per row activation
system.mem_ctrls.bytesPerActivate::mean    531.145086                       # Bytes accessed per row activation
system.mem_ctrls.bytesPerActivate::gmean   342.641081                       # Bytes accessed per row activation
system.mem_ctrls.bytesPerActivate::stdev   409.092982                       # Bytes accessed per row activation
system.mem_ctrls.bytesPerActivate::0-127       137184      8.25%      8.25% # Bytes accessed per row activation
system.mem_ctrls.bytesPerActivate::128-255       580517     34.93%     43.18% # Bytes accessed per row activation
system.mem_ctrls.bytesPerActivate::256-383        78245      4.71%     47.89% # Bytes accessed per row activation
system.mem_ctrls.bytesPerActivate::384-511        63779      3.84%     51.73% # Bytes accessed per row activation
system.mem_ctrls.bytesPerActivate::512-639        63369      3.81%     55.54% # Bytes accessed per row activation
system.mem_ctrls.bytesPerActivate::640-767        61357      3.69%     59.23% # Bytes accessed per row activation
system.mem_ctrls.bytesPerActivate::768-895        60308      3.63%     62.86% # Bytes accessed per row activation
system.mem_ctrls.bytesPerActivate::896-1023        65336      3.93%     66.79% # Bytes accessed per row activation
system.mem_ctrls.bytesPerActivate::1024-1151       551855     33.21%    100.00% # Bytes accessed per row activation
system.mem_ctrls.bytesPerActivate::total      1661950                       # Bytes accessed per row activation
system.mem_ctrls.rdPerTurnAround::samples       379266                       # Reads before turning the bus around for writes
system.mem_ctrls.rdPerTurnAround::mean      17.992098                       # Reads before turning the bus around for writes
system.mem_ctrls.rdPerTurnAround::gmean     17.943354                       # Reads before turning the bus around for writes
system.mem_ctrls.rdPerTurnAround::stdev     23.431960                       # Reads before turning the bus around for writes
system.mem_ctrls.rdPerTurnAround::0-511        379264    100.00%    100.00% # Reads before turning the bus around for writes
system.mem_ctrls.rdPerTurnAround::2048-2559            1      0.00%    100.00% # Reads before turning the bus around for writes
system.mem_ctrls.rdPerTurnAround::13824-14335            1      0.00%    100.00% # Reads before turning the bus around for writes
system.mem_ctrls.rdPerTurnAround::total        379266                       # Reads before turning the bus around for writes
system.mem_ctrls.wrPerTurnAround::samples       379266                       # Writes before turning the bus around for reads
system.mem_ctrls.wrPerTurnAround::mean      17.945864                       # Writes before turning the bus around for reads
system.mem_ctrls.wrPerTurnAround::gmean     17.942610                       # Writes before turning the bus around for reads
system.mem_ctrls.wrPerTurnAround::stdev      0.329658                       # Writes before turning the bus around for reads
system.mem_ctrls.wrPerTurnAround::16            10363      2.73%      2.73% # Writes before turning the bus around for reads
system.mem_ctrls.wrPerTurnAround::17              339      0.09%      2.82% # Writes before turning the bus around for reads
system.mem_ctrls.wrPerTurnAround::18           368033     97.04%     99.86% # Writes before turning the bus around for reads
system.mem_ctrls.wrPerTurnAround::19              529      0.14%    100.00% # Writes before turning the bus around for reads
system.mem_ctrls.wrPerTurnAround::20                2      0.00%    100.00% # Writes before turning the bus around for reads
system.mem_ctrls.wrPerTurnAround::total        379266                       # Writes before turning the bus around for reads
system.mem_ctrls.totQLat                  72201505750                       # Total ticks spent queuing
system.mem_ctrls.totMemAccLat            203198568250                       # Total ticks spent from burst creation until serviced by the DRAM
system.mem_ctrls.totBusLat                34932550000                       # Total ticks spent in databus transfers
system.mem_ctrls.avgQLat                     10334.42                       # Average queueing delay per DRAM burst
system.mem_ctrls.avgBusLat                    5000.00                       # Average bus latency per DRAM burst
system.mem_ctrls.avgMemAccLat                29084.42                       # Average memory access latency per DRAM burst
system.mem_ctrls.avgRdBW                       296.30                       # Average DRAM read bandwidth in MiByte/s
system.mem_ctrls.avgWrBW                       288.66                       # Average achieved write bandwidth in MiByte/s
system.mem_ctrls.avgRdBWSys                    296.30                       # Average system read bandwidth in MiByte/s
system.mem_ctrls.avgWrBWSys                    288.66                       # Average system write bandwidth in MiByte/s
system.mem_ctrls.peakBW                      12800.00                       # Theoretical peak bandwidth in MiByte/s
system.mem_ctrls.busUtil                         4.57                       # Data bus utilization in percentage
system.mem_ctrls.busUtilRead                     2.31                       # Data bus utilization in percentage for reads
system.mem_ctrls.busUtilWrite                    2.26                       # Data bus utilization in percentage for writes
system.mem_ctrls.avgRdQLen                       1.00                       # Average read queue length when enqueuing
system.mem_ctrls.avgWrQLen                      24.65                       # Average write queue length when enqueuing
system.mem_ctrls.readRowHits                  6152010                       # Number of row buffer hits during reads
system.mem_ctrls.writeRowHits                 5978805                       # Number of row buffer hits during writes
system.mem_ctrls.readRowHitRate                 88.06                       # Row buffer hit rate for reads
system.mem_ctrls.writeRowHitRate                87.84                       # Row buffer hit rate for writes
system.mem_ctrls.avgGap                     109409.01                       # Average gap between requests
system.mem_ctrls.pageHitRate                    87.95                       # Row buffer hit rate, read and write combined
system.mem_ctrls_0.actEnergy               6284393640                       # Energy for activate commands per rank (pJ)
system.mem_ctrls_0.preEnergy               3428984625                       # Energy for precharge commands per rank (pJ)
system.mem_ctrls_0.readEnergy             27247927200                       # Energy for read commands per rank (pJ)
system.mem_ctrls_0.writeEnergy            22054602240                       # Energy for write commands per rank (pJ)
system.mem_ctrls_0.refreshEnergy          98564013600                       # Energy for refresh commands per rank (pJ)
system.mem_ctrls_0.actBackEnergy         531129808170                       # Energy for active background per rank (pJ)
system.mem_ctrls_0.preBackEnergy         439528674750                       # Energy for precharge background per rank (pJ)
system.mem_ctrls_0.totalEnergy           1128238404225                       # Total energy per rank (pJ)
system.mem_ctrls_0.averagePower            747.646462                       # Core power per rank (mW)
system.mem_ctrls_0.memoryStateTime::IDLE 721611746250                       # Time in different power states
system.mem_ctrls_0.memoryStateTime::REF   50390600000                       # Time in different power states
system.mem_ctrls_0.memoryStateTime::PRE_PDN            0                       # Time in different power states
system.mem_ctrls_0.memoryStateTime::ACT  737051026250                       # Time in different power states
system.mem_ctrls_0.memoryStateTime::ACT_PDN            0                       # Time in different power states
system.mem_ctrls_1.actEnergy               6279948360                       # Energy for activate commands per rank (pJ)
system.mem_ctrls_1.preEnergy               3426559125                       # Energy for precharge commands per rank (pJ)
system.mem_ctrls_1.readEnergy             27246796200                       # Energy for read commands per rank (pJ)
system.mem_ctrls_1.writeEnergy            22049936640                       # Energy for write commands per rank (pJ)
system.mem_ctrls_1.refreshEnergy          98564013600                       # Energy for refresh commands per rank (pJ)
system.mem_ctrls_1.actBackEnergy         532475437950                       # Energy for active background per rank (pJ)
system.mem_ctrls_1.preBackEnergy         438348306000                       # Energy for precharge background per rank (pJ)
system.mem_ctrls_1.totalEnergy           1128390997875                       # Total energy per rank (pJ)
system.mem_ctrls_1.averagePower            747.747574                       # Core power per rank (mW)
system.mem_ctrls_1.memoryStateTime::IDLE 719654896250                       # Time in different power states
system.mem_ctrls_1.memoryStateTime::REF   50390600000                       # Time in different power states
system.mem_ctrls_1.memoryStateTime::PRE_PDN            0                       # Time in different power states
system.mem_ctrls_1.memoryStateTime::ACT  739007890000                       # Time in different power states
system.mem_ctrls_1.memoryStateTime::ACT_PDN            0                       # Time in different power states
system.cpu_voltage_domain.voltage                   1                       # Voltage in Volts
system.cpu_clk_domain.clock                       500                       # Clock period in ticks
system.cpu.apic_clk_domain.clock                 8000                       # Clock period in ticks
system.cpu.workload.num_syscalls                   19                       # Number of system calls
system.cpu.numCycles                       3018112319                       # number of cpu cycles simulated
system.cpu.numWorkItemsStarted                      0                       # number of work items this cpu started
system.cpu.numWorkItemsCompleted                    0                       # number of work items this cpu completed
system.cpu.committedInsts                   500000001                       # Number of instructions committed
system.cpu.committedOps                     641260670                       # Number of ops (including micro ops) committed
system.cpu.num_int_alu_accesses             637137353                       # Number of integer alu accesses
system.cpu.num_fp_alu_accesses                9227435                       # Number of float alu accesses
system.cpu.num_func_calls                         660                       # number of times a function call or return occured
system.cpu.num_conditional_control_insts     16683844                       # number of instructions that are conditional controls
system.cpu.num_int_insts                    637137353                       # number of integer instructions
system.cpu.num_fp_insts                       9227435                       # number of float instructions
system.cpu.num_int_register_reads          1249374303                       # number of times the integer registers were read
system.cpu.num_int_register_writes          553481593                       # number of times the integer registers were written
system.cpu.num_fp_register_reads             12369393                       # number of times the floating registers were read
system.cpu.num_fp_register_writes             8527128                       # number of times the floating registers were written
system.cpu.num_cc_register_reads             84591760                       # number of times the CC registers were read
system.cpu.num_cc_register_writes           269610148                       # number of times the CC registers were written
system.cpu.num_mem_refs                     206857898                       # number of memory refs
system.cpu.num_load_insts                   144386317                       # Number of load instructions
system.cpu.num_store_insts                   62471581                       # Number of store instructions
system.cpu.num_idle_cycles                          0                       # Number of idle cycles
system.cpu.num_busy_cycles                 3018112319                       # Number of busy cycles
system.cpu.not_idle_fraction                        1                       # Percentage of non-idle cycles
system.cpu.idle_fraction                            0                       # Percentage of idle cycles
system.cpu.Branches                          16714695                       # Number of branches fetched
system.cpu.op_class::No_OpClass                   139      0.00%      0.00% # Class of executed instruction
system.cpu.op_class::IntAlu                 430201596     67.09%     67.09% # Class of executed instruction
system.cpu.op_class::IntMult                   215447      0.03%     67.12% # Class of executed instruction
system.cpu.op_class::IntDiv                        70      0.00%     67.12% # Class of executed instruction
system.cpu.op_class::FloatAdd                 3985520      0.62%     67.74% # Class of executed instruction
system.cpu.op_class::FloatCmp                       0      0.00%     67.74% # Class of executed instruction
system.cpu.op_class::FloatCvt                       0      0.00%     67.74% # Class of executed instruction
system.cpu.op_class::FloatMult                      0      0.00%     67.74% # Class of executed instruction
system.cpu.op_class::FloatDiv                       0      0.00%     67.74% # Class of executed instruction
system.cpu.op_class::FloatSqrt                      0      0.00%     67.74% # Class of executed instruction
system.cpu.op_class::SimdAdd                        0      0.00%     67.74% # Class of executed instruction
system.cpu.op_class::SimdAddAcc                     0      0.00%     67.74% # Class of executed instruction
system.cpu.op_class::SimdAlu                        0      0.00%     67.74% # Class of executed instruction
system.cpu.op_class::SimdCmp                        0      0.00%     67.74% # Class of executed instruction
system.cpu.op_class::SimdCvt                        0      0.00%     67.74% # Class of executed instruction
system.cpu.op_class::SimdMisc                       0      0.00%     67.74% # Class of executed instruction
system.cpu.op_class::SimdMult                       0      0.00%     67.74% # Class of executed instruction
system.cpu.op_class::SimdMultAcc                    0      0.00%     67.74% # Class of executed instruction
system.cpu.op_class::SimdShift                      0      0.00%     67.74% # Class of executed instruction
system.cpu.op_class::SimdShiftAcc                   0      0.00%     67.74% # Class of executed instruction
system.cpu.op_class::SimdSqrt                       0      0.00%     67.74% # Class of executed instruction
system.cpu.op_class::SimdFloatAdd                   0      0.00%     67.74% # Class of executed instruction
system.cpu.op_class::SimdFloatAlu                   0      0.00%     67.74% # Class of executed instruction
system.cpu.op_class::SimdFloatCmp                   0      0.00%     67.74% # Class of executed instruction
system.cpu.op_class::SimdFloatCvt                   0      0.00%     67.74% # Class of executed instruction
system.cpu.op_class::SimdFloatDiv                   0      0.00%     67.74% # Class of executed instruction
system.cpu.op_class::SimdFloatMisc                  0      0.00%     67.74% # Class of executed instruction
system.cpu.op_class::SimdFloatMult                  0      0.00%     67.74% # Class of executed instruction
system.cpu.op_class::SimdFloatMultAcc               0      0.00%     67.74% # Class of executed instruction
system.cpu.op_class::SimdFloatSqrt                  0      0.00%     67.74% # Class of executed instruction
system.cpu.op_class::MemRead                144386317     22.52%     90.26% # Class of executed instruction
system.cpu.op_class::MemWrite                62471581      9.74%    100.00% # Class of executed instruction
system.cpu.op_class::IprAccess                      0      0.00%    100.00% # Class of executed instruction
system.cpu.op_class::InstPrefetch                   0      0.00%    100.00% # Class of executed instruction
system.cpu.op_class::total                  641260670                       # Class of executed instruction
system.cpu.dcache.tags.replacements           7091609                       # number of replacements
system.cpu.dcache.tags.tagsinuse          1023.893052                       # Cycle average of tags in use
system.cpu.dcache.tags.total_refs           199765276                       # Total number of references to valid blocks.
system.cpu.dcache.tags.sampled_refs           7092633                       # Sample count of references to valid blocks.
system.cpu.dcache.tags.avg_refs             28.165179                       # Average number of references to valid blocks.
system.cpu.dcache.tags.warmup_cycle         289797500                       # Cycle when the warmup percentage was hit.
system.cpu.dcache.tags.occ_blocks::cpu.data  1023.893052                       # Average occupied blocks per requestor
system.cpu.dcache.tags.occ_percent::cpu.data     0.999896                       # Average percentage of cache occupancy
system.cpu.dcache.tags.occ_percent::total     0.999896                       # Average percentage of cache occupancy
system.cpu.dcache.tags.occ_task_id_blocks::1024         1024                       # Occupied blocks per task id
system.cpu.dcache.tags.age_task_id_blocks_1024::0           25                       # Occupied blocks per task id
system.cpu.dcache.tags.age_task_id_blocks_1024::1          234                       # Occupied blocks per task id
system.cpu.dcache.tags.age_task_id_blocks_1024::2          765                       # Occupied blocks per task id
system.cpu.dcache.tags.occ_task_id_percent::1024            1                       # Percentage of cache occupancy per task id
system.cpu.dcache.tags.tag_accesses         213950542                       # Number of tag accesses
system.cpu.dcache.tags.data_accesses        213950542                       # Number of data accesses
system.cpu.dcache.ReadReq_hits::cpu.data    144040617                       # number of ReadReq hits
system.cpu.dcache.ReadReq_hits::total       144040617                       # number of ReadReq hits
system.cpu.dcache.WriteReq_hits::cpu.data     55724659                       # number of WriteReq hits
system.cpu.dcache.WriteReq_hits::total       55724659                       # number of WriteReq hits
system.cpu.dcache.demand_hits::cpu.data     199765276                       # number of demand (read+write) hits
system.cpu.dcache.demand_hits::total        199765276                       # number of demand (read+write) hits
system.cpu.dcache.overall_hits::cpu.data    199765276                       # number of overall hits
system.cpu.dcache.overall_hits::total       199765276                       # number of overall hits
system.cpu.dcache.ReadReq_misses::cpu.data       345710                       # number of ReadReq misses
system.cpu.dcache.ReadReq_misses::total        345710                       # number of ReadReq misses
system.cpu.dcache.WriteReq_misses::cpu.data      6746923                       # number of WriteReq misses
system.cpu.dcache.WriteReq_misses::total      6746923                       # number of WriteReq misses
system.cpu.dcache.demand_misses::cpu.data      7092633                       # number of demand (read+write) misses
system.cpu.dcache.demand_misses::total        7092633                       # number of demand (read+write) misses
system.cpu.dcache.overall_misses::cpu.data      7092633                       # number of overall misses
system.cpu.dcache.overall_misses::total       7092633                       # number of overall misses
system.cpu.dcache.ReadReq_miss_latency::cpu.data  24006024000                       # number of ReadReq miss cycles
system.cpu.dcache.ReadReq_miss_latency::total  24006024000                       # number of ReadReq miss cycles
system.cpu.dcache.WriteReq_miss_latency::cpu.data 545696374500                       # number of WriteReq miss cycles
system.cpu.dcache.WriteReq_miss_latency::total 545696374500                       # number of WriteReq miss cycles
system.cpu.dcache.demand_miss_latency::cpu.data 569702398500                       # number of demand (read+write) miss cycles
system.cpu.dcache.demand_miss_latency::total 569702398500                       # number of demand (read+write) miss cycles
system.cpu.dcache.overall_miss_latency::cpu.data 569702398500                       # number of overall miss cycles
system.cpu.dcache.overall_miss_latency::total 569702398500                       # number of overall miss cycles
system.cpu.dcache.ReadReq_accesses::cpu.data    144386327                       # number of ReadReq accesses(hits+misses)
system.cpu.dcache.ReadReq_accesses::total    144386327                       # number of ReadReq accesses(hits+misses)
system.cpu.dcache.WriteReq_accesses::cpu.data     62471582                       # number of WriteReq accesses(hits+misses)
system.cpu.dcache.WriteReq_accesses::total     62471582                       # number of WriteReq accesses(hits+misses)
system.cpu.dcache.demand_accesses::cpu.data    206857909                       # number of demand (read+write) accesses
system.cpu.dcache.demand_accesses::total    206857909                       # number of demand (read+write) accesses
system.cpu.dcache.overall_accesses::cpu.data    206857909                       # number of overall (read+write) accesses
system.cpu.dcache.overall_accesses::total    206857909                       # number of overall (read+write) accesses
system.cpu.dcache.ReadReq_miss_rate::cpu.data     0.002394                       # miss rate for ReadReq accesses
system.cpu.dcache.ReadReq_miss_rate::total     0.002394                       # miss rate for ReadReq accesses
system.cpu.dcache.WriteReq_miss_rate::cpu.data     0.108000                       # miss rate for WriteReq accesses
system.cpu.dcache.WriteReq_miss_rate::total     0.108000                       # miss rate for WriteReq accesses
system.cpu.dcache.demand_miss_rate::cpu.data     0.034287                       # miss rate for demand accesses
system.cpu.dcache.demand_miss_rate::total     0.034287                       # miss rate for demand accesses
system.cpu.dcache.overall_miss_rate::cpu.data     0.034287                       # miss rate for overall accesses
system.cpu.dcache.overall_miss_rate::total     0.034287                       # miss rate for overall accesses
system.cpu.dcache.ReadReq_avg_miss_latency::cpu.data 69439.773220                       # average ReadReq miss latency
system.cpu.dcache.ReadReq_avg_miss_latency::total 69439.773220                       # average ReadReq miss latency
system.cpu.dcache.WriteReq_avg_miss_latency::cpu.data 80880.776985                       # average WriteReq miss latency
system.cpu.dcache.WriteReq_avg_miss_latency::total 80880.776985                       # average WriteReq miss latency
system.cpu.dcache.demand_avg_miss_latency::cpu.data 80323.118157                       # average overall miss latency
system.cpu.dcache.demand_avg_miss_latency::total 80323.118157                       # average overall miss latency
system.cpu.dcache.overall_avg_miss_latency::cpu.data 80323.118157                       # average overall miss latency
system.cpu.dcache.overall_avg_miss_latency::total 80323.118157                       # average overall miss latency
system.cpu.dcache.blocked_cycles::no_mshrs            0                       # number of cycles access was blocked
system.cpu.dcache.blocked_cycles::no_targets            0                       # number of cycles access was blocked
system.cpu.dcache.blocked::no_mshrs                 0                       # number of cycles access was blocked
system.cpu.dcache.blocked::no_targets               0                       # number of cycles access was blocked
system.cpu.dcache.avg_blocked_cycles::no_mshrs          nan                       # average number of cycles each access was blocked
system.cpu.dcache.avg_blocked_cycles::no_targets          nan                       # average number of cycles each access was blocked
system.cpu.dcache.fast_writes                       0                       # number of fast writes performed
system.cpu.dcache.cache_copies                      0                       # number of cache copies performed
system.cpu.dcache.writebacks::writebacks      6909064                       # number of writebacks
system.cpu.dcache.writebacks::total           6909064                       # number of writebacks
system.cpu.dcache.ReadReq_mshr_misses::cpu.data       345710                       # number of ReadReq MSHR misses
system.cpu.dcache.ReadReq_mshr_misses::total       345710                       # number of ReadReq MSHR misses
system.cpu.dcache.WriteReq_mshr_misses::cpu.data      6746923                       # number of WriteReq MSHR misses
system.cpu.dcache.WriteReq_mshr_misses::total      6746923                       # number of WriteReq MSHR misses
system.cpu.dcache.demand_mshr_misses::cpu.data      7092633                       # number of demand (read+write) MSHR misses
system.cpu.dcache.demand_mshr_misses::total      7092633                       # number of demand (read+write) MSHR misses
system.cpu.dcache.overall_mshr_misses::cpu.data      7092633                       # number of overall MSHR misses
system.cpu.dcache.overall_mshr_misses::total      7092633                       # number of overall MSHR misses
system.cpu.dcache.ReadReq_mshr_miss_latency::cpu.data  23660314000                       # number of ReadReq MSHR miss cycles
system.cpu.dcache.ReadReq_mshr_miss_latency::total  23660314000                       # number of ReadReq MSHR miss cycles
system.cpu.dcache.WriteReq_mshr_miss_latency::cpu.data 538949451500                       # number of WriteReq MSHR miss cycles
system.cpu.dcache.WriteReq_mshr_miss_latency::total 538949451500                       # number of WriteReq MSHR miss cycles
system.cpu.dcache.demand_mshr_miss_latency::cpu.data 562609765500                       # number of demand (read+write) MSHR miss cycles
system.cpu.dcache.demand_mshr_miss_latency::total 562609765500                       # number of demand (read+write) MSHR miss cycles
system.cpu.dcache.overall_mshr_miss_latency::cpu.data 562609765500                       # number of overall MSHR miss cycles
system.cpu.dcache.overall_mshr_miss_latency::total 562609765500                       # number of overall MSHR miss cycles
system.cpu.dcache.ReadReq_mshr_miss_rate::cpu.data     0.002394                       # mshr miss rate for ReadReq accesses
system.cpu.dcache.ReadReq_mshr_miss_rate::total     0.002394                       # mshr miss rate for ReadReq accesses
system.cpu.dcache.WriteReq_mshr_miss_rate::cpu.data     0.108000                       # mshr miss rate for WriteReq accesses
system.cpu.dcache.WriteReq_mshr_miss_rate::total     0.108000                       # mshr miss rate for WriteReq accesses
system.cpu.dcache.demand_mshr_miss_rate::cpu.data     0.034287                       # mshr miss rate for demand accesses
system.cpu.dcache.demand_mshr_miss_rate::total     0.034287                       # mshr miss rate for demand accesses
system.cpu.dcache.overall_mshr_miss_rate::cpu.data     0.034287                       # mshr miss rate for overall accesses
system.cpu.dcache.overall_mshr_miss_rate::total     0.034287                       # mshr miss rate for overall accesses
system.cpu.dcache.ReadReq_avg_mshr_miss_latency::cpu.data 68439.773220                       # average ReadReq mshr miss latency
system.cpu.dcache.ReadReq_avg_mshr_miss_latency::total 68439.773220                       # average ReadReq mshr miss latency
system.cpu.dcache.WriteReq_avg_mshr_miss_latency::cpu.data 79880.776985                       # average WriteReq mshr miss latency
system.cpu.dcache.WriteReq_avg_mshr_miss_latency::total 79880.776985                       # average WriteReq mshr miss latency
system.cpu.dcache.demand_avg_mshr_miss_latency::cpu.data 79323.118157                       # average overall mshr miss latency
system.cpu.dcache.demand_avg_mshr_miss_latency::total 79323.118157                       # average overall mshr miss latency
system.cpu.dcache.overall_avg_mshr_miss_latency::cpu.data 79323.118157                       # average overall mshr miss latency
system.cpu.dcache.overall_avg_mshr_miss_latency::total 79323.118157                       # average overall mshr miss latency
system.cpu.dcache.no_allocate_misses                0                       # Number of misses that were no-allocate
system.cpu.dtb_walker_cache.tags.replacements            0                       # number of replacements
system.cpu.dtb_walker_cache.tags.tagsinuse            0                       # Cycle average of tags in use
system.cpu.dtb_walker_cache.tags.total_refs            0                       # Total number of references to valid blocks.
system.cpu.dtb_walker_cache.tags.sampled_refs            0                       # Sample count of references to valid blocks.
system.cpu.dtb_walker_cache.tags.avg_refs          nan                       # Average number of references to valid blocks.
system.cpu.dtb_walker_cache.tags.warmup_cycle            0                       # Cycle when the warmup percentage was hit.
system.cpu.dtb_walker_cache.tags.tag_accesses            0                       # Number of tag accesses
system.cpu.dtb_walker_cache.tags.data_accesses            0                       # Number of data accesses
system.cpu.dtb_walker_cache.blocked_cycles::no_mshrs            0                       # number of cycles access was blocked
system.cpu.dtb_walker_cache.blocked_cycles::no_targets            0                       # number of cycles access was blocked
system.cpu.dtb_walker_cache.blocked::no_mshrs            0                       # number of cycles access was blocked
system.cpu.dtb_walker_cache.blocked::no_targets            0                       # number of cycles access was blocked
system.cpu.dtb_walker_cache.avg_blocked_cycles::no_mshrs          nan                       # average number of cycles each access was blocked
system.cpu.dtb_walker_cache.avg_blocked_cycles::no_targets          nan                       # average number of cycles each access was blocked
system.cpu.dtb_walker_cache.fast_writes             0                       # number of fast writes performed
system.cpu.dtb_walker_cache.cache_copies            0                       # number of cache copies performed
system.cpu.dtb_walker_cache.no_allocate_misses            0                       # Number of misses that were no-allocate
system.cpu.icache.tags.replacements                67                       # number of replacements
system.cpu.icache.tags.tagsinuse           447.175711                       # Cycle average of tags in use
system.cpu.icache.tags.total_refs           739547013                       # Total number of references to valid blocks.
system.cpu.icache.tags.sampled_refs               534                       # Sample count of references to valid blocks.
system.cpu.icache.tags.avg_refs          1384919.500000                       # Average number of references to valid blocks.
system.cpu.icache.tags.warmup_cycle                 0                       # Cycle when the warmup percentage was hit.
system.cpu.icache.tags.occ_blocks::cpu.inst   447.175711                       # Average occupied blocks per requestor
system.cpu.icache.tags.occ_percent::cpu.inst     0.873390                       # Average percentage of cache occupancy
system.cpu.icache.tags.occ_percent::total     0.873390                       # Average percentage of cache occupancy
system.cpu.icache.tags.occ_task_id_blocks::1024          467                       # Occupied blocks per task id
system.cpu.icache.tags.age_task_id_blocks_1024::4          467                       # Occupied blocks per task id
system.cpu.icache.tags.occ_task_id_percent::1024     0.912109                       # Percentage of cache occupancy per task id
system.cpu.icache.tags.tag_accesses        5916380910                       # Number of tag accesses
system.cpu.icache.tags.data_accesses       5916380910                       # Number of data accesses
system.cpu.icache.ReadReq_hits::cpu.inst    739547013                       # number of ReadReq hits
system.cpu.icache.ReadReq_hits::total       739547013                       # number of ReadReq hits
system.cpu.icache.demand_hits::cpu.inst     739547013                       # number of demand (read+write) hits
system.cpu.icache.demand_hits::total        739547013                       # number of demand (read+write) hits
system.cpu.icache.overall_hits::cpu.inst    739547013                       # number of overall hits
system.cpu.icache.overall_hits::total       739547013                       # number of overall hits
system.cpu.icache.ReadReq_misses::cpu.inst          534                       # number of ReadReq misses
system.cpu.icache.ReadReq_misses::total           534                       # number of ReadReq misses
system.cpu.icache.demand_misses::cpu.inst          534                       # number of demand (read+write) misses
system.cpu.icache.demand_misses::total            534                       # number of demand (read+write) misses
system.cpu.icache.overall_misses::cpu.inst          534                       # number of overall misses
system.cpu.icache.overall_misses::total           534                       # number of overall misses
system.cpu.icache.ReadReq_miss_latency::cpu.inst     41481000                       # number of ReadReq miss cycles
system.cpu.icache.ReadReq_miss_latency::total     41481000                       # number of ReadReq miss cycles
system.cpu.icache.demand_miss_latency::cpu.inst     41481000                       # number of demand (read+write) miss cycles
system.cpu.icache.demand_miss_latency::total     41481000                       # number of demand (read+write) miss cycles
system.cpu.icache.overall_miss_latency::cpu.inst     41481000                       # number of overall miss cycles
system.cpu.icache.overall_miss_latency::total     41481000                       # number of overall miss cycles
system.cpu.icache.ReadReq_accesses::cpu.inst    739547547                       # number of ReadReq accesses(hits+misses)
system.cpu.icache.ReadReq_accesses::total    739547547                       # number of ReadReq accesses(hits+misses)
system.cpu.icache.demand_accesses::cpu.inst    739547547                       # number of demand (read+write) accesses
system.cpu.icache.demand_accesses::total    739547547                       # number of demand (read+write) accesses
system.cpu.icache.overall_accesses::cpu.inst    739547547                       # number of overall (read+write) accesses
system.cpu.icache.overall_accesses::total    739547547                       # number of overall (read+write) accesses
system.cpu.icache.ReadReq_miss_rate::cpu.inst     0.000001                       # miss rate for ReadReq accesses
system.cpu.icache.ReadReq_miss_rate::total     0.000001                       # miss rate for ReadReq accesses
system.cpu.icache.demand_miss_rate::cpu.inst     0.000001                       # miss rate for demand accesses
system.cpu.icache.demand_miss_rate::total     0.000001                       # miss rate for demand accesses
system.cpu.icache.overall_miss_rate::cpu.inst     0.000001                       # miss rate for overall accesses
system.cpu.icache.overall_miss_rate::total     0.000001                       # miss rate for overall accesses
system.cpu.icache.ReadReq_avg_miss_latency::cpu.inst 77679.775281                       # average ReadReq miss latency
system.cpu.icache.ReadReq_avg_miss_latency::total 77679.775281                       # average ReadReq miss latency
system.cpu.icache.demand_avg_miss_latency::cpu.inst 77679.775281                       # average overall miss latency
system.cpu.icache.demand_avg_miss_latency::total 77679.775281                       # average overall miss latency
system.cpu.icache.overall_avg_miss_latency::cpu.inst 77679.775281                       # average overall miss latency
system.cpu.icache.overall_avg_miss_latency::total 77679.775281                       # average overall miss latency
system.cpu.icache.blocked_cycles::no_mshrs            0                       # number of cycles access was blocked
system.cpu.icache.blocked_cycles::no_targets            0                       # number of cycles access was blocked
system.cpu.icache.blocked::no_mshrs                 0                       # number of cycles access was blocked
system.cpu.icache.blocked::no_targets               0                       # number of cycles access was blocked
system.cpu.icache.avg_blocked_cycles::no_mshrs          nan                       # average number of cycles each access was blocked
system.cpu.icache.avg_blocked_cycles::no_targets          nan                       # average number of cycles each access was blocked
system.cpu.icache.fast_writes                       0                       # number of fast writes performed
system.cpu.icache.cache_copies                      0                       # number of cache copies performed
system.cpu.icache.writebacks::writebacks           67                       # number of writebacks
system.cpu.icache.writebacks::total                67                       # number of writebacks
system.cpu.icache.ReadReq_mshr_misses::cpu.inst          534                       # number of ReadReq MSHR misses
system.cpu.icache.ReadReq_mshr_misses::total          534                       # number of ReadReq MSHR misses
system.cpu.icache.demand_mshr_misses::cpu.inst          534                       # number of demand (read+write) MSHR misses
system.cpu.icache.demand_mshr_misses::total          534                       # number of demand (read+write) MSHR misses
system.cpu.icache.overall_mshr_misses::cpu.inst          534                       # number of overall MSHR misses
system.cpu.icache.overall_mshr_misses::total          534                       # number of overall MSHR misses
system.cpu.icache.ReadReq_mshr_miss_latency::cpu.inst     40947000                       # number of ReadReq MSHR miss cycles
system.cpu.icache.ReadReq_mshr_miss_latency::total     40947000                       # number of ReadReq MSHR miss cycles
system.cpu.icache.demand_mshr_miss_latency::cpu.inst     40947000                       # number of demand (read+write) MSHR miss cycles
system.cpu.icache.demand_mshr_miss_latency::total     40947000                       # number of demand (read+write) MSHR miss cycles
system.cpu.icache.overall_mshr_miss_latency::cpu.inst     40947000                       # number of overall MSHR miss cycles
system.cpu.icache.overall_mshr_miss_latency::total     40947000                       # number of overall MSHR miss cycles
system.cpu.icache.ReadReq_mshr_miss_rate::cpu.inst     0.000001                       # mshr miss rate for ReadReq accesses
system.cpu.icache.ReadReq_mshr_miss_rate::total     0.000001                       # mshr miss rate for ReadReq accesses
system.cpu.icache.demand_mshr_miss_rate::cpu.inst     0.000001                       # mshr miss rate for demand accesses
system.cpu.icache.demand_mshr_miss_rate::total     0.000001                       # mshr miss rate for demand accesses
system.cpu.icache.overall_mshr_miss_rate::cpu.inst     0.000001                       # mshr miss rate for overall accesses
system.cpu.icache.overall_mshr_miss_rate::total     0.000001                       # mshr miss rate for overall accesses
system.cpu.icache.ReadReq_avg_mshr_miss_latency::cpu.inst 76679.775281                       # average ReadReq mshr miss latency
system.cpu.icache.ReadReq_avg_mshr_miss_latency::total 76679.775281                       # average ReadReq mshr miss latency
system.cpu.icache.demand_avg_mshr_miss_latency::cpu.inst 76679.775281                       # average overall mshr miss latency
system.cpu.icache.demand_avg_mshr_miss_latency::total 76679.775281                       # average overall mshr miss latency
system.cpu.icache.overall_avg_mshr_miss_latency::cpu.inst 76679.775281                       # average overall mshr miss latency
system.cpu.icache.overall_avg_mshr_miss_latency::total 76679.775281                       # average overall mshr miss latency
system.cpu.icache.no_allocate_misses                0                       # Number of misses that were no-allocate
system.cpu.itb_walker_cache.tags.replacements            0                       # number of replacements
system.cpu.itb_walker_cache.tags.tagsinuse            0                       # Cycle average of tags in use
system.cpu.itb_walker_cache.tags.total_refs            0                       # Total number of references to valid blocks.
system.cpu.itb_walker_cache.tags.sampled_refs            0                       # Sample count of references to valid blocks.
system.cpu.itb_walker_cache.tags.avg_refs          nan                       # Average number of references to valid blocks.
system.cpu.itb_walker_cache.tags.warmup_cycle            0                       # Cycle when the warmup percentage was hit.
system.cpu.itb_walker_cache.tags.tag_accesses            0                       # Number of tag accesses
system.cpu.itb_walker_cache.tags.data_accesses            0                       # Number of data accesses
system.cpu.itb_walker_cache.blocked_cycles::no_mshrs            0                       # number of cycles access was blocked
system.cpu.itb_walker_cache.blocked_cycles::no_targets            0                       # number of cycles access was blocked
system.cpu.itb_walker_cache.blocked::no_mshrs            0                       # number of cycles access was blocked
system.cpu.itb_walker_cache.blocked::no_targets            0                       # number of cycles access was blocked
system.cpu.itb_walker_cache.avg_blocked_cycles::no_mshrs          nan                       # average number of cycles each access was blocked
system.cpu.itb_walker_cache.avg_blocked_cycles::no_targets          nan                       # average number of cycles each access was blocked
system.cpu.itb_walker_cache.fast_writes             0                       # number of fast writes performed
system.cpu.itb_walker_cache.cache_copies            0                       # number of cache copies performed
system.cpu.itb_walker_cache.no_allocate_misses            0                       # Number of misses that were no-allocate
system.l2.tags.replacements                   6978566                       # number of replacements
system.l2.tags.tagsinuse                 15436.559213                       # Cycle average of tags in use
system.l2.tags.total_refs                      442654                       # Total number of references to valid blocks.
system.l2.tags.sampled_refs                   6994949                       # Sample count of references to valid blocks.
system.l2.tags.avg_refs                      0.063282                       # Average number of references to valid blocks.
system.l2.tags.warmup_cycle              1373567536500                       # Cycle when the warmup percentage was hit.
system.l2.tags.occ_blocks::writebacks    14039.808796                       # Average occupied blocks per requestor
system.l2.tags.occ_blocks::cpu.inst          0.443599                       # Average occupied blocks per requestor
system.l2.tags.occ_blocks::cpu.data       1396.306818                       # Average occupied blocks per requestor
system.l2.tags.occ_percent::writebacks       0.856922                       # Average percentage of cache occupancy
system.l2.tags.occ_percent::cpu.inst         0.000027                       # Average percentage of cache occupancy
system.l2.tags.occ_percent::cpu.data         0.085224                       # Average percentage of cache occupancy
system.l2.tags.occ_percent::total            0.942173                       # Average percentage of cache occupancy
system.l2.tags.occ_task_id_blocks::1024         16383                       # Occupied blocks per task id
system.l2.tags.age_task_id_blocks_1024::0           25                       # Occupied blocks per task id
system.l2.tags.age_task_id_blocks_1024::1          234                       # Occupied blocks per task id
system.l2.tags.age_task_id_blocks_1024::2         2327                       # Occupied blocks per task id
system.l2.tags.age_task_id_blocks_1024::3        13797                       # Occupied blocks per task id
system.l2.tags.occ_task_id_percent::1024     0.999939                       # Percentage of cache occupancy per task id
system.l2.tags.tag_accesses                  27926715                       # Number of tag accesses
system.l2.tags.data_accesses                 27926715                       # Number of data accesses
system.l2.WritebackDirty_hits::writebacks      6909064                       # number of WritebackDirty hits
system.l2.WritebackDirty_hits::total          6909064                       # number of WritebackDirty hits
system.l2.WritebackClean_hits::writebacks           67                       # number of WritebackClean hits
system.l2.WritebackClean_hits::total               67                       # number of WritebackClean hits
system.l2.ReadExReq_hits::cpu.data              46792                       # number of ReadExReq hits
system.l2.ReadExReq_hits::total                 46792                       # number of ReadExReq hits
system.l2.ReadCleanReq_hits::cpu.inst               7                       # number of ReadCleanReq hits
system.l2.ReadCleanReq_hits::total                  7                       # number of ReadCleanReq hits
system.l2.ReadSharedReq_hits::cpu.data          59858                       # number of ReadSharedReq hits
system.l2.ReadSharedReq_hits::total             59858                       # number of ReadSharedReq hits
system.l2.demand_hits::cpu.inst                     7                       # number of demand (read+write) hits
system.l2.demand_hits::cpu.data                106650                       # number of demand (read+write) hits
system.l2.demand_hits::total                   106657                       # number of demand (read+write) hits
system.l2.overall_hits::cpu.inst                    7                       # number of overall hits
system.l2.overall_hits::cpu.data               106650                       # number of overall hits
system.l2.overall_hits::total                  106657                       # number of overall hits
system.l2.ReadExReq_misses::cpu.data          6700131                       # number of ReadExReq misses
system.l2.ReadExReq_misses::total             6700131                       # number of ReadExReq misses
system.l2.ReadCleanReq_misses::cpu.inst           527                       # number of ReadCleanReq misses
system.l2.ReadCleanReq_misses::total              527                       # number of ReadCleanReq misses
system.l2.ReadSharedReq_misses::cpu.data       285852                       # number of ReadSharedReq misses
system.l2.ReadSharedReq_misses::total          285852                       # number of ReadSharedReq misses
system.l2.demand_misses::cpu.inst                 527                       # number of demand (read+write) misses
system.l2.demand_misses::cpu.data             6985983                       # number of demand (read+write) misses
system.l2.demand_misses::total                6986510                       # number of demand (read+write) misses
system.l2.overall_misses::cpu.inst                527                       # number of overall misses
system.l2.overall_misses::cpu.data            6985983                       # number of overall misses
system.l2.overall_misses::total               6986510                       # number of overall misses
system.l2.ReadExReq_miss_latency::cpu.data 528337751000                       # number of ReadExReq miss cycles
system.l2.ReadExReq_miss_latency::total  528337751000                       # number of ReadExReq miss cycles
system.l2.ReadCleanReq_miss_latency::cpu.inst     40071000                       # number of ReadCleanReq miss cycles
system.l2.ReadCleanReq_miss_latency::total     40071000                       # number of ReadCleanReq miss cycles
system.l2.ReadSharedReq_miss_latency::cpu.data  22513239500                       # number of ReadSharedReq miss cycles
system.l2.ReadSharedReq_miss_latency::total  22513239500                       # number of ReadSharedReq miss cycles
system.l2.demand_miss_latency::cpu.inst      40071000                       # number of demand (read+write) miss cycles
system.l2.demand_miss_latency::cpu.data  550850990500                       # number of demand (read+write) miss cycles
system.l2.demand_miss_latency::total     550891061500                       # number of demand (read+write) miss cycles
system.l2.overall_miss_latency::cpu.inst     40071000                       # number of overall miss cycles
system.l2.overall_miss_latency::cpu.data 550850990500                       # number of overall miss cycles
system.l2.overall_miss_latency::total    550891061500                       # number of overall miss cycles
system.l2.WritebackDirty_accesses::writebacks      6909064                       # number of WritebackDirty accesses(hits+misses)
system.l2.WritebackDirty_accesses::total      6909064                       # number of WritebackDirty accesses(hits+misses)
system.l2.WritebackClean_accesses::writebacks           67                       # number of WritebackClean accesses(hits+misses)
system.l2.WritebackClean_accesses::total           67                       # number of WritebackClean accesses(hits+misses)
system.l2.ReadExReq_accesses::cpu.data        6746923                       # number of ReadExReq accesses(hits+misses)
system.l2.ReadExReq_accesses::total           6746923                       # number of ReadExReq accesses(hits+misses)
system.l2.ReadCleanReq_accesses::cpu.inst          534                       # number of ReadCleanReq accesses(hits+misses)
system.l2.ReadCleanReq_accesses::total            534                       # number of ReadCleanReq accesses(hits+misses)
system.l2.ReadSharedReq_accesses::cpu.data       345710                       # number of ReadSharedReq accesses(hits+misses)
system.l2.ReadSharedReq_accesses::total        345710                       # number of ReadSharedReq accesses(hits+misses)
system.l2.demand_accesses::cpu.inst               534                       # number of demand (read+write) accesses
system.l2.demand_accesses::cpu.data           7092633                       # number of demand (read+write) accesses
system.l2.demand_accesses::total              7093167                       # number of demand (read+write) accesses
system.l2.overall_accesses::cpu.inst              534                       # number of overall (read+write) accesses
system.l2.overall_accesses::cpu.data          7092633                       # number of overall (read+write) accesses
system.l2.overall_accesses::total             7093167                       # number of overall (read+write) accesses
system.l2.ReadExReq_miss_rate::cpu.data      0.993065                       # miss rate for ReadExReq accesses
system.l2.ReadExReq_miss_rate::total         0.993065                       # miss rate for ReadExReq accesses
system.l2.ReadCleanReq_miss_rate::cpu.inst     0.986891                       # miss rate for ReadCleanReq accesses
system.l2.ReadCleanReq_miss_rate::total      0.986891                       # miss rate for ReadCleanReq accesses
system.l2.ReadSharedReq_miss_rate::cpu.data     0.826855                       # miss rate for ReadSharedReq accesses
system.l2.ReadSharedReq_miss_rate::total     0.826855                       # miss rate for ReadSharedReq accesses
system.l2.demand_miss_rate::cpu.inst         0.986891                       # miss rate for demand accesses
system.l2.demand_miss_rate::cpu.data         0.984963                       # miss rate for demand accesses
system.l2.demand_miss_rate::total            0.984963                       # miss rate for demand accesses
system.l2.overall_miss_rate::cpu.inst        0.986891                       # miss rate for overall accesses
system.l2.overall_miss_rate::cpu.data        0.984963                       # miss rate for overall accesses
system.l2.overall_miss_rate::total           0.984963                       # miss rate for overall accesses
system.l2.ReadExReq_avg_miss_latency::cpu.data 78854.838958                       # average ReadExReq miss latency
system.l2.ReadExReq_avg_miss_latency::total 78854.838958                       # average ReadExReq miss latency
system.l2.ReadCleanReq_avg_miss_latency::cpu.inst 76036.053131                       # average ReadCleanReq miss latency
system.l2.ReadCleanReq_avg_miss_latency::total 76036.053131                       # average ReadCleanReq miss latency
system.l2.ReadSharedReq_avg_miss_latency::cpu.data 78758.376712                       # average ReadSharedReq miss latency
system.l2.ReadSharedReq_avg_miss_latency::total 78758.376712                       # average ReadSharedReq miss latency
system.l2.demand_avg_miss_latency::cpu.inst 76036.053131                       # average overall miss latency
system.l2.demand_avg_miss_latency::cpu.data 78850.891922                       # average overall miss latency
system.l2.demand_avg_miss_latency::total 78850.679595                       # average overall miss latency
system.l2.overall_avg_miss_latency::cpu.inst 76036.053131                       # average overall miss latency
system.l2.overall_avg_miss_latency::cpu.data 78850.891922                       # average overall miss latency
system.l2.overall_avg_miss_latency::total 78850.679595                       # average overall miss latency
system.l2.blocked_cycles::no_mshrs                  0                       # number of cycles access was blocked
system.l2.blocked_cycles::no_targets                0                       # number of cycles access was blocked
system.l2.blocked::no_mshrs                         0                       # number of cycles access was blocked
system.l2.blocked::no_targets                       0                       # number of cycles access was blocked
system.l2.avg_blocked_cycles::no_mshrs            nan                       # average number of cycles each access was blocked
system.l2.avg_blocked_cycles::no_targets          nan                       # average number of cycles each access was blocked
system.l2.fast_writes                               0                       # number of fast writes performed
system.l2.cache_copies                              0                       # number of cache copies performed
system.l2.writebacks::writebacks              6806280                       # number of writebacks
system.l2.writebacks::total                   6806280                       # number of writebacks
system.l2.CleanEvict_mshr_misses::writebacks          305                       # number of CleanEvict MSHR misses
system.l2.CleanEvict_mshr_misses::total           305                       # number of CleanEvict MSHR misses
system.l2.ReadExReq_mshr_misses::cpu.data      6700131                       # number of ReadExReq MSHR misses
system.l2.ReadExReq_mshr_misses::total        6700131                       # number of ReadExReq MSHR misses
system.l2.ReadCleanReq_mshr_misses::cpu.inst          527                       # number of ReadCleanReq MSHR misses
system.l2.ReadCleanReq_mshr_misses::total          527                       # number of ReadCleanReq MSHR misses
system.l2.ReadSharedReq_mshr_misses::cpu.data       285852                       # number of ReadSharedReq MSHR misses
system.l2.ReadSharedReq_mshr_misses::total       285852                       # number of ReadSharedReq MSHR misses
system.l2.demand_mshr_misses::cpu.inst            527                       # number of demand (read+write) MSHR misses
system.l2.demand_mshr_misses::cpu.data        6985983                       # number of demand (read+write) MSHR misses
system.l2.demand_mshr_misses::total           6986510                       # number of demand (read+write) MSHR misses
system.l2.overall_mshr_misses::cpu.inst           527                       # number of overall MSHR misses
system.l2.overall_mshr_misses::cpu.data       6985983                       # number of overall MSHR misses
system.l2.overall_mshr_misses::total          6986510                       # number of overall MSHR misses
system.l2.ReadExReq_mshr_miss_latency::cpu.data 461336441000                       # number of ReadExReq MSHR miss cycles
system.l2.ReadExReq_mshr_miss_latency::total 461336441000                       # number of ReadExReq MSHR miss cycles
system.l2.ReadCleanReq_mshr_miss_latency::cpu.inst     34801000                       # number of ReadCleanReq MSHR miss cycles
system.l2.ReadCleanReq_mshr_miss_latency::total     34801000                       # number of ReadCleanReq MSHR miss cycles
system.l2.ReadSharedReq_mshr_miss_latency::cpu.data  19654719500                       # number of ReadSharedReq MSHR miss cycles
system.l2.ReadSharedReq_mshr_miss_latency::total  19654719500                       # number of ReadSharedReq MSHR miss cycles
system.l2.demand_mshr_miss_latency::cpu.inst     34801000                       # number of demand (read+write) MSHR miss cycles
system.l2.demand_mshr_miss_latency::cpu.data 480991160500                       # number of demand (read+write) MSHR miss cycles
system.l2.demand_mshr_miss_latency::total 481025961500                       # number of demand (read+write) MSHR miss cycles
system.l2.overall_mshr_miss_latency::cpu.inst     34801000                       # number of overall MSHR miss cycles
system.l2.overall_mshr_miss_latency::cpu.data 480991160500                       # number of overall MSHR miss cycles
system.l2.overall_mshr_miss_latency::total 481025961500                       # number of overall MSHR miss cycles
system.l2.CleanEvict_mshr_miss_rate::writebacks          inf                       # mshr miss rate for CleanEvict accesses
system.l2.CleanEvict_mshr_miss_rate::total          inf                       # mshr miss rate for CleanEvict accesses
system.l2.ReadExReq_mshr_miss_rate::cpu.data     0.993065                       # mshr miss rate for ReadExReq accesses
system.l2.ReadExReq_mshr_miss_rate::total     0.993065                       # mshr miss rate for ReadExReq accesses
system.l2.ReadCleanReq_mshr_miss_rate::cpu.inst     0.986891                       # mshr miss rate for ReadCleanReq accesses
system.l2.ReadCleanReq_mshr_miss_rate::total     0.986891                       # mshr miss rate for ReadCleanReq accesses
system.l2.ReadSharedReq_mshr_miss_rate::cpu.data     0.826855                       # mshr miss rate for ReadSharedReq accesses
system.l2.ReadSharedReq_mshr_miss_rate::total     0.826855                       # mshr miss rate for ReadSharedReq accesses
system.l2.demand_mshr_miss_rate::cpu.inst     0.986891                       # mshr miss rate for demand accesses
system.l2.demand_mshr_miss_rate::cpu.data     0.984963                       # mshr miss rate for demand accesses
system.l2.demand_mshr_miss_rate::total       0.984963                       # mshr miss rate for demand accesses
system.l2.overall_mshr_miss_rate::cpu.inst     0.986891                       # mshr miss rate for overall accesses
system.l2.overall_mshr_miss_rate::cpu.data     0.984963                       # mshr miss rate for overall accesses
system.l2.overall_mshr_miss_rate::total      0.984963                       # mshr miss rate for overall accesses
system.l2.ReadExReq_avg_mshr_miss_latency::cpu.data 68854.838958                       # average ReadExReq mshr miss latency
system.l2.ReadExReq_avg_mshr_miss_latency::total 68854.838958                       # average ReadExReq mshr miss latency
system.l2.ReadCleanReq_avg_mshr_miss_latency::cpu.inst 66036.053131                       # average ReadCleanReq mshr miss latency
system.l2.ReadCleanReq_avg_mshr_miss_latency::total 66036.053131                       # average ReadCleanReq mshr miss latency
system.l2.ReadSharedReq_avg_mshr_miss_latency::cpu.data 68758.376712                       # average ReadSharedReq mshr miss latency
system.l2.ReadSharedReq_avg_mshr_miss_latency::total 68758.376712                       # average ReadSharedReq mshr miss latency
system.l2.demand_avg_mshr_miss_latency::cpu.inst 66036.053131                       # average overall mshr miss latency
system.l2.demand_avg_mshr_miss_latency::cpu.data 68850.891922                       # average overall mshr miss latency
system.l2.demand_avg_mshr_miss_latency::total 68850.679595                       # average overall mshr miss latency
system.l2.overall_avg_mshr_miss_latency::cpu.inst 66036.053131                       # average overall mshr miss latency
system.l2.overall_avg_mshr_miss_latency::cpu.data 68850.891922                       # average overall mshr miss latency
system.l2.overall_avg_mshr_miss_latency::total 68850.679595                       # average overall mshr miss latency
system.l2.no_allocate_misses                        0                       # Number of misses that were no-allocate
system.membus.trans_dist::ReadResp             286379                       # Transaction distribution
system.membus.trans_dist::WritebackDirty      6806280                       # Transaction distribution
system.membus.trans_dist::CleanEvict           163379                       # Transaction distribution
system.membus.trans_dist::ReadExReq           6700131                       # Transaction distribution
system.membus.trans_dist::ReadExResp          6700131                       # Transaction distribution
system.membus.trans_dist::ReadSharedReq        286379                       # Transaction distribution
system.membus.pkt_count_system.l2.mem_side::system.mem_ctrls.port     20942679                       # Packet count per connected master and slave (bytes)
system.membus.pkt_count_system.l2.mem_side::total     20942679                       # Packet count per connected master and slave (bytes)
system.membus.pkt_count::total               20942679                       # Packet count per connected master and slave (bytes)
system.membus.pkt_size_system.l2.mem_side::system.mem_ctrls.port    882738560                       # Cumulative packet size per connected master and slave (bytes)
system.membus.pkt_size_system.l2.mem_side::total    882738560                       # Cumulative packet size per connected master and slave (bytes)
system.membus.pkt_size::total               882738560                       # Cumulative packet size per connected master and slave (bytes)
system.membus.snoops                                0                       # Total snoops (count)
system.membus.snoop_fanout::samples          13956169                       # Request fanout histogram
system.membus.snoop_fanout::mean                    0                       # Request fanout histogram
system.membus.snoop_fanout::stdev                   0                       # Request fanout histogram
system.membus.snoop_fanout::underflows              0      0.00%      0.00% # Request fanout histogram
system.membus.snoop_fanout::0                13956169    100.00%    100.00% # Request fanout histogram
system.membus.snoop_fanout::1                       0      0.00%    100.00% # Request fanout histogram
system.membus.snoop_fanout::overflows               0      0.00%    100.00% # Request fanout histogram
system.membus.snoop_fanout::min_value               0                       # Request fanout histogram
system.membus.snoop_fanout::max_value               0                       # Request fanout histogram
system.membus.snoop_fanout::total            13956169                       # Request fanout histogram
system.membus.reqLayer2.occupancy         41181293000                       # Layer occupancy (ticks)
system.membus.reqLayer2.utilization               2.7                       # Layer utilization (%)
system.membus.respLayer1.occupancy        36792790750                       # Layer occupancy (ticks)
system.membus.respLayer1.utilization              2.4                       # Layer utilization (%)
system.tol2bus.snoop_filter.tot_requests     14184843                       # Total number of requests made to the snoop filter.
system.tol2bus.snoop_filter.hit_single_requests      7091676                       # Number of requests hitting in the snoop filter with a single holder of the requested data.
system.tol2bus.snoop_filter.hit_multi_requests            0                       # Number of requests hitting in the snoop filter with multiple (>1) holders of the requested data.
system.tol2bus.snoop_filter.tot_snoops           9212                       # Total number of snoops made to the snoop filter.
system.tol2bus.snoop_filter.hit_single_snoops         9212                       # Number of snoops hitting in the snoop filter with a single holder of the requested data.
system.tol2bus.snoop_filter.hit_multi_snoops            0                       # Number of snoops hitting in the snoop filter with multiple (>1) holders of the requested data.
system.tol2bus.trans_dist::ReadResp            346244                       # Transaction distribution
system.tol2bus.trans_dist::WritebackDirty     13715344                       # Transaction distribution
system.tol2bus.trans_dist::WritebackClean           67                       # Transaction distribution
system.tol2bus.trans_dist::CleanEvict          354831                       # Transaction distribution
system.tol2bus.trans_dist::ReadExReq          6746923                       # Transaction distribution
system.tol2bus.trans_dist::ReadExResp         6746923                       # Transaction distribution
system.tol2bus.trans_dist::ReadCleanReq           534                       # Transaction distribution
system.tol2bus.trans_dist::ReadSharedReq       345710                       # Transaction distribution
system.tol2bus.pkt_count_system.cpu.icache.mem_side::system.l2.cpu_side         1135                       # Packet count per connected master and slave (bytes)
system.tol2bus.pkt_count_system.cpu.dcache.mem_side::system.l2.cpu_side     21276875                       # Packet count per connected master and slave (bytes)
system.tol2bus.pkt_count::total              21278010                       # Packet count per connected master and slave (bytes)
system.tol2bus.pkt_size_system.cpu.icache.mem_side::system.l2.cpu_side        38464                       # Cumulative packet size per connected master and slave (bytes)
system.tol2bus.pkt_size_system.cpu.dcache.mem_side::system.l2.cpu_side    896108608                       # Cumulative packet size per connected master and slave (bytes)
system.tol2bus.pkt_size::total              896147072                       # Cumulative packet size per connected master and slave (bytes)
system.tol2bus.snoops                         6978566                       # Total snoops (count)
system.tol2bus.snoop_fanout::samples         14071733                       # Request fanout histogram
system.tol2bus.snoop_fanout::mean            0.000655                       # Request fanout histogram
system.tol2bus.snoop_fanout::stdev           0.025578                       # Request fanout histogram
system.tol2bus.snoop_fanout::underflows             0      0.00%      0.00% # Request fanout histogram
system.tol2bus.snoop_fanout::0               14062521     99.93%     99.93% # Request fanout histogram
system.tol2bus.snoop_fanout::1                   9212      0.07%    100.00% # Request fanout histogram
system.tol2bus.snoop_fanout::2                      0      0.00%    100.00% # Request fanout histogram
system.tol2bus.snoop_fanout::3                      0      0.00%    100.00% # Request fanout histogram
system.tol2bus.snoop_fanout::4                      0      0.00%    100.00% # Request fanout histogram
system.tol2bus.snoop_fanout::overflows              0      0.00%    100.00% # Request fanout histogram
system.tol2bus.snoop_fanout::min_value              0                       # Request fanout histogram
system.tol2bus.snoop_fanout::max_value              1                       # Request fanout histogram
system.tol2bus.snoop_fanout::total           14071733                       # Request fanout histogram
system.tol2bus.reqLayer0.occupancy        14001552500                       # Layer occupancy (ticks)
system.tol2bus.reqLayer0.utilization              0.9                       # Layer utilization (%)
system.tol2bus.respLayer0.occupancy            801000                       # Layer occupancy (ticks)
system.tol2bus.respLayer0.utilization             0.0                       # Layer utilization (%)
system.tol2bus.respLayer1.occupancy       10638949500                       # Layer occupancy (ticks)
system.tol2bus.respLayer1.utilization             0.7                       # Layer utilization (%)

---------- End Simulation Statistics   ----------
