
---------- Begin Simulation Statistics ----------
sim_seconds                                  2.026103                       # Number of seconds simulated
sim_ticks                                2026102692500                       # Number of ticks simulated
final_tick                               2026102692500                       # Number of ticks from beginning of simulation (restored from checkpoints and never reset)
sim_freq                                 1000000000000                       # Frequency of simulated ticks
host_inst_rate                                 596347                       # Simulator instruction rate (inst/s)
host_op_rate                                   764827                       # Simulator op (including micro ops) rate (op/s)
host_tick_rate                             2416518751                       # Simulator tick rate (ticks/s)
host_mem_usage                                 830180                       # Number of bytes of host memory used
host_seconds                                   838.44                       # Real time elapsed on the host
sim_insts                                   500000001                       # Number of instructions simulated
sim_ops                                     641260670                       # Number of ops (including micro ops) simulated
system.voltage_domain.voltage                       1                       # Voltage in Volts
system.clk_domain.clock                          1000                       # Clock period in ticks
system.mem_ctrls.bytes_read::cpu.inst           27424                       # Number of bytes read from this memory
system.mem_ctrls.bytes_read::cpu.data       443687328                       # Number of bytes read from this memory
system.mem_ctrls.bytes_read::total          443714752                       # Number of bytes read from this memory
system.mem_ctrls.bytes_inst_read::cpu.inst        27424                       # Number of instructions bytes read from this memory
system.mem_ctrls.bytes_inst_read::total         27424                       # Number of instructions bytes read from this memory
system.mem_ctrls.bytes_written::writebacks    432204288                       # Number of bytes written to this memory
system.mem_ctrls.bytes_written::total       432204288                       # Number of bytes written to this memory
system.mem_ctrls.num_reads::cpu.inst              857                       # Number of read requests responded to by this memory
system.mem_ctrls.num_reads::cpu.data         13865229                       # Number of read requests responded to by this memory
system.mem_ctrls.num_reads::total            13866086                       # Number of read requests responded to by this memory
system.mem_ctrls.num_writes::writebacks      13506384                       # Number of write requests responded to by this memory
system.mem_ctrls.num_writes::total           13506384                       # Number of write requests responded to by this memory
system.mem_ctrls.bw_read::cpu.inst              13535                       # Total read bandwidth from this memory (bytes/s)
system.mem_ctrls.bw_read::cpu.data          218985607                       # Total read bandwidth from this memory (bytes/s)
system.mem_ctrls.bw_read::total             218999142                       # Total read bandwidth from this memory (bytes/s)
system.mem_ctrls.bw_inst_read::cpu.inst         13535                       # Instruction read bandwidth from this memory (bytes/s)
system.mem_ctrls.bw_inst_read::total            13535                       # Instruction read bandwidth from this memory (bytes/s)
system.mem_ctrls.bw_write::writebacks       213318056                       # Write bandwidth from this memory (bytes/s)
system.mem_ctrls.bw_write::total            213318056                       # Write bandwidth from this memory (bytes/s)
system.mem_ctrls.bw_total::writebacks       213318056                       # Total bandwidth to/from this memory (bytes/s)
system.mem_ctrls.bw_total::cpu.inst             13535                       # Total bandwidth to/from this memory (bytes/s)
system.mem_ctrls.bw_total::cpu.data         218985607                       # Total bandwidth to/from this memory (bytes/s)
system.mem_ctrls.bw_total::total            432317199                       # Total bandwidth to/from this memory (bytes/s)
system.mem_ctrls.readReqs                    13866086                       # Number of read requests accepted
system.mem_ctrls.writeReqs                   13506384                       # Number of write requests accepted
system.mem_ctrls.readBursts                  13866086                       # Number of DRAM read bursts, including those serviced by the write queue
system.mem_ctrls.writeBursts                 13506384                       # Number of DRAM write bursts, including those merged in the write queue
system.mem_ctrls.bytesReadDRAM              887429504                       # Total number of bytes read from DRAM
system.mem_ctrls.bytesReadWrQ                       0                       # Total number of bytes read from write queue
system.mem_ctrls.bytesWritten               436816896                       # Total number of bytes written to DRAM
system.mem_ctrls.bytesReadSys               443714752                       # Total read bytes from the system interface side
system.mem_ctrls.bytesWrittenSys            432204288                       # Total written bytes from the system interface side
system.mem_ctrls.servicedByWrQ                      0                       # Number of DRAM read bursts serviced by the write queue
system.mem_ctrls.mergedWrBursts               6681105                       # Number of DRAM write bursts merged with an existing one
system.mem_ctrls.neitherReadNorWriteReqs       326123                       # Number of requests that are neither read nor write
system.mem_ctrls.perBankRdBursts::0            866740                       # Per bank write bursts
system.mem_ctrls.perBankRdBursts::1            866581                       # Per bank write bursts
system.mem_ctrls.perBankRdBursts::2            866725                       # Per bank write bursts
system.mem_ctrls.perBankRdBursts::3            866640                       # Per bank write bursts
system.mem_ctrls.perBankRdBursts::4            866690                       # Per bank write bursts
system.mem_ctrls.perBankRdBursts::5            866757                       # Per bank write bursts
system.mem_ctrls.perBankRdBursts::6            866596                       # Per bank write bursts
system.mem_ctrls.perBankRdBursts::7            866611                       # Per bank write bursts
system.mem_ctrls.perBankRdBursts::8            866538                       # Per bank write bursts
system.mem_ctrls.perBankRdBursts::9            866599                       # Per bank write bursts
system.mem_ctrls.perBankRdBursts::10           866627                       # Per bank write bursts
system.mem_ctrls.perBankRdBursts::11           866587                       # Per bank write bursts
system.mem_ctrls.perBankRdBursts::12           866685                       # Per bank write bursts
system.mem_ctrls.perBankRdBursts::13           866565                       # Per bank write bursts
system.mem_ctrls.perBankRdBursts::14           866546                       # Per bank write bursts
system.mem_ctrls.perBankRdBursts::15           866599                       # Per bank write bursts
system.mem_ctrls.perBankWrBursts::0            426528                       # Per bank write bursts
system.mem_ctrls.perBankWrBursts::1            426810                       # Per bank write bursts
system.mem_ctrls.perBankWrBursts::2            426491                       # Per bank write bursts
system.mem_ctrls.perBankWrBursts::3            426863                       # Per bank write bursts
system.mem_ctrls.perBankWrBursts::4            426484                       # Per bank write bursts
system.mem_ctrls.perBankWrBursts::5            426776                       # Per bank write bursts
system.mem_ctrls.perBankWrBursts::6            426349                       # Per bank write bursts
system.mem_ctrls.perBankWrBursts::7            426684                       # Per bank write bursts
system.mem_ctrls.perBankWrBursts::8            426319                       # Per bank write bursts
system.mem_ctrls.perBankWrBursts::9            426651                       # Per bank write bursts
system.mem_ctrls.perBankWrBursts::10           426361                       # Per bank write bursts
system.mem_ctrls.perBankWrBursts::11           426642                       # Per bank write bursts
system.mem_ctrls.perBankWrBursts::12           426330                       # Per bank write bursts
system.mem_ctrls.perBankWrBursts::13           426673                       # Per bank write bursts
system.mem_ctrls.perBankWrBursts::14           426470                       # Per bank write bursts
system.mem_ctrls.perBankWrBursts::15           426833                       # Per bank write bursts
system.mem_ctrls.numRdRetry                         0                       # Number of times read queue was full causing retry
system.mem_ctrls.numWrRetry                         0                       # Number of times write queue was full causing retry
system.mem_ctrls.totGap                  2026102124500                       # Total gap between requests
system.mem_ctrls.readPktSize::0                     0                       # Read request sizes (log2)
system.mem_ctrls.readPktSize::1                     0                       # Read request sizes (log2)
system.mem_ctrls.readPktSize::2                     0                       # Read request sizes (log2)
system.mem_ctrls.readPktSize::3                     0                       # Read request sizes (log2)
system.mem_ctrls.readPktSize::4                     0                       # Read request sizes (log2)
system.mem_ctrls.readPktSize::5              13866086                       # Read request sizes (log2)
system.mem_ctrls.readPktSize::6                     0                       # Read request sizes (log2)
system.mem_ctrls.writePktSize::0                    0                       # Write request sizes (log2)
system.mem_ctrls.writePktSize::1                    0                       # Write request sizes (log2)
system.mem_ctrls.writePktSize::2                    0                       # Write request sizes (log2)
system.mem_ctrls.writePktSize::3                    0                       # Write request sizes (log2)
system.mem_ctrls.writePktSize::4                    0                       # Write request sizes (log2)
system.mem_ctrls.writePktSize::5             13506384                       # Write request sizes (log2)
system.mem_ctrls.writePktSize::6                    0                       # Write request sizes (log2)
system.mem_ctrls.rdQLenPdf::0                13866086                       # What read queue length does an incoming req see
system.mem_ctrls.rdQLenPdf::1                       0                       # What read queue length does an incoming req see
system.mem_ctrls.rdQLenPdf::2                       0                       # What read queue length does an incoming req see
system.mem_ctrls.rdQLenPdf::3                       0                       # What read queue length does an incoming req see
system.mem_ctrls.rdQLenPdf::4                       0                       # What read queue length does an incoming req see
system.mem_ctrls.rdQLenPdf::5                       0                       # What read queue length does an incoming req see
system.mem_ctrls.rdQLenPdf::6                       0                       # What read queue length does an incoming req see
system.mem_ctrls.rdQLenPdf::7                       0                       # What read queue length does an incoming req see
system.mem_ctrls.rdQLenPdf::8                       0                       # What read queue length does an incoming req see
system.mem_ctrls.rdQLenPdf::9                       0                       # What read queue length does an incoming req see
system.mem_ctrls.rdQLenPdf::10                      0                       # What read queue length does an incoming req see
system.mem_ctrls.rdQLenPdf::11                      0                       # What read queue length does an incoming req see
system.mem_ctrls.rdQLenPdf::12                      0                       # What read queue length does an incoming req see
system.mem_ctrls.rdQLenPdf::13                      0                       # What read queue length does an incoming req see
system.mem_ctrls.rdQLenPdf::14                      0                       # What read queue length does an incoming req see
system.mem_ctrls.rdQLenPdf::15                      0                       # What read queue length does an incoming req see
system.mem_ctrls.rdQLenPdf::16                      0                       # What read queue length does an incoming req see
system.mem_ctrls.rdQLenPdf::17                      0                       # What read queue length does an incoming req see
system.mem_ctrls.rdQLenPdf::18                      0                       # What read queue length does an incoming req see
system.mem_ctrls.rdQLenPdf::19                      0                       # What read queue length does an incoming req see
system.mem_ctrls.rdQLenPdf::20                      0                       # What read queue length does an incoming req see
system.mem_ctrls.rdQLenPdf::21                      0                       # What read queue length does an incoming req see
system.mem_ctrls.rdQLenPdf::22                      0                       # What read queue length does an incoming req see
system.mem_ctrls.rdQLenPdf::23                      0                       # What read queue length does an incoming req see
system.mem_ctrls.rdQLenPdf::24                      0                       # What read queue length does an incoming req see
system.mem_ctrls.rdQLenPdf::25                      0                       # What read queue length does an incoming req see
system.mem_ctrls.rdQLenPdf::26                      0                       # What read queue length does an incoming req see
system.mem_ctrls.rdQLenPdf::27                      0                       # What read queue length does an incoming req see
system.mem_ctrls.rdQLenPdf::28                      0                       # What read queue length does an incoming req see
system.mem_ctrls.rdQLenPdf::29                      0                       # What read queue length does an incoming req see
system.mem_ctrls.rdQLenPdf::30                      0                       # What read queue length does an incoming req see
system.mem_ctrls.rdQLenPdf::31                      0                       # What read queue length does an incoming req see
system.mem_ctrls.wrQLenPdf::0                       1                       # What write queue length does an incoming req see
system.mem_ctrls.wrQLenPdf::1                       1                       # What write queue length does an incoming req see
system.mem_ctrls.wrQLenPdf::2                       1                       # What write queue length does an incoming req see
system.mem_ctrls.wrQLenPdf::3                       1                       # What write queue length does an incoming req see
system.mem_ctrls.wrQLenPdf::4                       1                       # What write queue length does an incoming req see
system.mem_ctrls.wrQLenPdf::5                       1                       # What write queue length does an incoming req see
system.mem_ctrls.wrQLenPdf::6                       1                       # What write queue length does an incoming req see
system.mem_ctrls.wrQLenPdf::7                       1                       # What write queue length does an incoming req see
system.mem_ctrls.wrQLenPdf::8                       1                       # What write queue length does an incoming req see
system.mem_ctrls.wrQLenPdf::9                       1                       # What write queue length does an incoming req see
system.mem_ctrls.wrQLenPdf::10                      1                       # What write queue length does an incoming req see
system.mem_ctrls.wrQLenPdf::11                      1                       # What write queue length does an incoming req see
system.mem_ctrls.wrQLenPdf::12                      1                       # What write queue length does an incoming req see
system.mem_ctrls.wrQLenPdf::13                      1                       # What write queue length does an incoming req see
system.mem_ctrls.wrQLenPdf::14                      1                       # What write queue length does an incoming req see
system.mem_ctrls.wrQLenPdf::15                 171423                       # What write queue length does an incoming req see
system.mem_ctrls.wrQLenPdf::16                 174309                       # What write queue length does an incoming req see
system.mem_ctrls.wrQLenPdf::17                 404957                       # What write queue length does an incoming req see
system.mem_ctrls.wrQLenPdf::18                 404969                       # What write queue length does an incoming req see
system.mem_ctrls.wrQLenPdf::19                 404970                       # What write queue length does an incoming req see
system.mem_ctrls.wrQLenPdf::20                 404970                       # What write queue length does an incoming req see
system.mem_ctrls.wrQLenPdf::21                 404969                       # What write queue length does an incoming req see
system.mem_ctrls.wrQLenPdf::22                 404970                       # What write queue length does an incoming req see
system.mem_ctrls.wrQLenPdf::23                 404972                       # What write queue length does an incoming req see
system.mem_ctrls.wrQLenPdf::24                 404971                       # What write queue length does an incoming req see
system.mem_ctrls.wrQLenPdf::25                 404971                       # What write queue length does an incoming req see
system.mem_ctrls.wrQLenPdf::26                 404978                       # What write queue length does an incoming req see
system.mem_ctrls.wrQLenPdf::27                 404974                       # What write queue length does an incoming req see
system.mem_ctrls.wrQLenPdf::28                 404969                       # What write queue length does an incoming req see
system.mem_ctrls.wrQLenPdf::29                 404970                       # What write queue length does an incoming req see
system.mem_ctrls.wrQLenPdf::30                 404984                       # What write queue length does an incoming req see
system.mem_ctrls.wrQLenPdf::31                 404969                       # What write queue length does an incoming req see
system.mem_ctrls.wrQLenPdf::32                 404969                       # What write queue length does an incoming req see
system.mem_ctrls.wrQLenPdf::33                      0                       # What write queue length does an incoming req see
system.mem_ctrls.wrQLenPdf::34                      0                       # What write queue length does an incoming req see
system.mem_ctrls.wrQLenPdf::35                      0                       # What write queue length does an incoming req see
system.mem_ctrls.wrQLenPdf::36                      0                       # What write queue length does an incoming req see
system.mem_ctrls.wrQLenPdf::37                      0                       # What write queue length does an incoming req see
system.mem_ctrls.wrQLenPdf::38                      0                       # What write queue length does an incoming req see
system.mem_ctrls.wrQLenPdf::39                      0                       # What write queue length does an incoming req see
system.mem_ctrls.wrQLenPdf::40                      0                       # What write queue length does an incoming req see
system.mem_ctrls.wrQLenPdf::41                      0                       # What write queue length does an incoming req see
system.mem_ctrls.wrQLenPdf::42                      0                       # What write queue length does an incoming req see
system.mem_ctrls.wrQLenPdf::43                      0                       # What write queue length does an incoming req see
system.mem_ctrls.wrQLenPdf::44                      0                       # What write queue length does an incoming req see
system.mem_ctrls.wrQLenPdf::45                      0                       # What write queue length does an incoming req see
system.mem_ctrls.wrQLenPdf::46                      0                       # What write queue length does an incoming req see
system.mem_ctrls.wrQLenPdf::47                      0                       # What write queue length does an incoming req see
system.mem_ctrls.wrQLenPdf::48                      0                       # What write queue length does an incoming req see
system.mem_ctrls.wrQLenPdf::49                      0                       # What write queue length does an incoming req see
system.mem_ctrls.wrQLenPdf::50                      0                       # What write queue length does an incoming req see
system.mem_ctrls.wrQLenPdf::51                      0                       # What write queue length does an incoming req see
system.mem_ctrls.wrQLenPdf::52                      0                       # What write queue length does an incoming req see
system.mem_ctrls.wrQLenPdf::53                      0                       # What write queue length does an incoming req see
system.mem_ctrls.wrQLenPdf::54                      0                       # What write queue length does an incoming req see
system.mem_ctrls.wrQLenPdf::55                      0                       # What write queue length does an incoming req see
system.mem_ctrls.wrQLenPdf::56                      0                       # What write queue length does an incoming req see
system.mem_ctrls.wrQLenPdf::57                      0                       # What write queue length does an incoming req see
system.mem_ctrls.wrQLenPdf::58                      0                       # What write queue length does an incoming req see
system.mem_ctrls.wrQLenPdf::59                      0                       # What write queue length does an incoming req see
system.mem_ctrls.wrQLenPdf::60                      0                       # What write queue length does an incoming req see
system.mem_ctrls.wrQLenPdf::61                      0                       # What write queue length does an incoming req see
system.mem_ctrls.wrQLenPdf::62                      0                       # What write queue length does an incoming req see
system.mem_ctrls.wrQLenPdf::63                      0                       # What write queue length does an incoming req see
system.mem_ctrls.bytesPerActivate::samples      1836409                       # Bytes accessed per row activation
system.mem_ctrls.bytesPerActivate::mean    721.105941                       # Bytes accessed per row activation
system.mem_ctrls.bytesPerActivate::gmean   555.568355                       # Bytes accessed per row activation
system.mem_ctrls.bytesPerActivate::stdev   373.897600                       # Bytes accessed per row activation
system.mem_ctrls.bytesPerActivate::0-127        68093      3.71%      3.71% # Bytes accessed per row activation
system.mem_ctrls.bytesPerActivate::128-255       286095     15.58%     19.29% # Bytes accessed per row activation
system.mem_ctrls.bytesPerActivate::256-383       142071      7.74%     27.02% # Bytes accessed per row activation
system.mem_ctrls.bytesPerActivate::384-511        66831      3.64%     30.66% # Bytes accessed per row activation
system.mem_ctrls.bytesPerActivate::512-639        72193      3.93%     34.59% # Bytes accessed per row activation
system.mem_ctrls.bytesPerActivate::640-767        90199      4.91%     39.51% # Bytes accessed per row activation
system.mem_ctrls.bytesPerActivate::768-895        68533      3.73%     43.24% # Bytes accessed per row activation
system.mem_ctrls.bytesPerActivate::896-1023        73708      4.01%     47.25% # Bytes accessed per row activation
system.mem_ctrls.bytesPerActivate::1024-1151       968686     52.75%    100.00% # Bytes accessed per row activation
system.mem_ctrls.bytesPerActivate::total      1836409                       # Bytes accessed per row activation
system.mem_ctrls.rdPerTurnAround::samples       404969                       # Reads before turning the bus around for writes
system.mem_ctrls.rdPerTurnAround::mean      33.437414                       # Reads before turning the bus around for writes
system.mem_ctrls.rdPerTurnAround::gmean     33.175774                       # Reads before turning the bus around for writes
system.mem_ctrls.rdPerTurnAround::stdev     45.074966                       # Reads before turning the bus around for writes
system.mem_ctrls.rdPerTurnAround::0-1023       404967    100.00%    100.00% # Reads before turning the bus around for writes
system.mem_ctrls.rdPerTurnAround::4096-5119            1      0.00%    100.00% # Reads before turning the bus around for writes
system.mem_ctrls.rdPerTurnAround::27648-28671            1      0.00%    100.00% # Reads before turning the bus around for writes
system.mem_ctrls.rdPerTurnAround::total        404969                       # Reads before turning the bus around for writes
system.mem_ctrls.wrPerTurnAround::samples       404969                       # Writes before turning the bus around for reads
system.mem_ctrls.wrPerTurnAround::mean      16.853794                       # Writes before turning the bus around for reads
system.mem_ctrls.wrPerTurnAround::gmean     16.825271                       # Writes before turning the bus around for reads
system.mem_ctrls.wrPerTurnAround::stdev      0.985750                       # Writes before turning the bus around for reads
system.mem_ctrls.wrPerTurnAround::16           230660     56.96%     56.96% # Writes before turning the bus around for reads
system.mem_ctrls.wrPerTurnAround::17             2885      0.71%     57.67% # Writes before turning the bus around for reads
system.mem_ctrls.wrPerTurnAround::18           171397     42.32%     99.99% # Writes before turning the bus around for reads
system.mem_ctrls.wrPerTurnAround::19               27      0.01%    100.00% # Writes before turning the bus around for reads
system.mem_ctrls.wrPerTurnAround::total        404969                       # Writes before turning the bus around for reads
system.mem_ctrls.totQLat                 108854747250                       # Total ticks spent queuing
system.mem_ctrls.totMemAccLat            368843859750                       # Total ticks spent from burst creation until serviced by the DRAM
system.mem_ctrls.totBusLat                69330430000                       # Total ticks spent in databus transfers
system.mem_ctrls.avgQLat                      7850.43                       # Average queueing delay per DRAM burst
system.mem_ctrls.avgBusLat                    5000.00                       # Average bus latency per DRAM burst
system.mem_ctrls.avgMemAccLat                26600.43                       # Average memory access latency per DRAM burst
system.mem_ctrls.avgRdBW                       438.00                       # Average DRAM read bandwidth in MiByte/s
system.mem_ctrls.avgWrBW                       215.59                       # Average achieved write bandwidth in MiByte/s
system.mem_ctrls.avgRdBWSys                    219.00                       # Average system read bandwidth in MiByte/s
system.mem_ctrls.avgWrBWSys                    213.32                       # Average system write bandwidth in MiByte/s
system.mem_ctrls.peakBW                      12800.00                       # Theoretical peak bandwidth in MiByte/s
system.mem_ctrls.busUtil                         5.11                       # Data bus utilization in percentage
system.mem_ctrls.busUtilRead                     3.42                       # Data bus utilization in percentage for reads
system.mem_ctrls.busUtilWrite                    1.68                       # Data bus utilization in percentage for writes
system.mem_ctrls.avgRdQLen                       1.00                       # Average read queue length when enqueuing
system.mem_ctrls.avgWrQLen                      25.43                       # Average write queue length when enqueuing
system.mem_ctrls.readRowHits                 12662233                       # Number of row buffer hits during reads
system.mem_ctrls.writeRowHits                 6192707                       # Number of row buffer hits during writes
system.mem_ctrls.readRowHitRate                 91.32                       # Row buffer hit rate for reads
system.mem_ctrls.writeRowHitRate                90.73                       # Row buffer hit rate for writes
system.mem_ctrls.avgGap                      74019.70                       # Average gap between requests
system.mem_ctrls.pageHitRate                    91.12                       # Row buffer hit rate, read and write combined
system.mem_ctrls_0.actEnergy               6942635280                       # Energy for activate commands per rank (pJ)
system.mem_ctrls_0.preEnergy               3788144250                       # Energy for precharge commands per rank (pJ)
system.mem_ctrls_0.readEnergy             54080052000                       # Energy for read commands per rank (pJ)
system.mem_ctrls_0.writeEnergy            22116142800                       # Energy for write commands per rank (pJ)
system.mem_ctrls_0.refreshEnergy         132334940400                       # Energy for refresh commands per rank (pJ)
system.mem_ctrls_0.actBackEnergy         709993038825                       # Energy for active background per rank (pJ)
system.mem_ctrls_0.preBackEnergy         592858662750                       # Energy for precharge background per rank (pJ)
system.mem_ctrls_0.totalEnergy           1522113616305                       # Total energy per rank (pJ)
system.mem_ctrls_0.averagePower            751.253220                       # Core power per rank (mW)
system.mem_ctrls_0.memoryStateTime::IDLE 975145735750                       # Time in different power states
system.mem_ctrls_0.memoryStateTime::REF   67655900000                       # Time in different power states
system.mem_ctrls_0.memoryStateTime::PRE_PDN            0                       # Time in different power states
system.mem_ctrls_0.memoryStateTime::ACT  983297668000                       # Time in different power states
system.mem_ctrls_0.memoryStateTime::ACT_PDN            0                       # Time in different power states
system.mem_ctrls_1.actEnergy               6940616760                       # Energy for activate commands per rank (pJ)
system.mem_ctrls_1.preEnergy               3787042875                       # Energy for precharge commands per rank (pJ)
system.mem_ctrls_1.readEnergy             54075301800                       # Energy for read commands per rank (pJ)
system.mem_ctrls_1.writeEnergy            22111567920                       # Energy for write commands per rank (pJ)
system.mem_ctrls_1.refreshEnergy         132334940400                       # Energy for refresh commands per rank (pJ)
system.mem_ctrls_1.actBackEnergy         709889462415                       # Energy for active background per rank (pJ)
system.mem_ctrls_1.preBackEnergy         592949519250                       # Energy for precharge background per rank (pJ)
system.mem_ctrls_1.totalEnergy           1522088451420                       # Total energy per rank (pJ)
system.mem_ctrls_1.averagePower            751.240800                       # Core power per rank (mW)
system.mem_ctrls_1.memoryStateTime::IDLE 975295559250                       # Time in different power states
system.mem_ctrls_1.memoryStateTime::REF   67655900000                       # Time in different power states
system.mem_ctrls_1.memoryStateTime::PRE_PDN            0                       # Time in different power states
system.mem_ctrls_1.memoryStateTime::ACT  983147844500                       # Time in different power states
system.mem_ctrls_1.memoryStateTime::ACT_PDN            0                       # Time in different power states
system.cpu_voltage_domain.voltage                   1                       # Voltage in Volts
system.cpu_clk_domain.clock                       500                       # Clock period in ticks
system.cpu.apic_clk_domain.clock                 8000                       # Clock period in ticks
system.cpu.workload.num_syscalls                   19                       # Number of system calls
system.cpu.numCycles                       4052205385                       # number of cpu cycles simulated
system.cpu.numWorkItemsStarted                      0                       # number of work items this cpu started
system.cpu.numWorkItemsCompleted                    0                       # number of work items this cpu completed
system.cpu.committedInsts                   500000001                       # Number of instructions committed
system.cpu.committedOps                     641260670                       # Number of ops (including micro ops) committed
system.cpu.num_int_alu_accesses             637137353                       # Number of integer alu accesses
system.cpu.num_fp_alu_accesses                9227435                       # Number of float alu accesses
system.cpu.num_func_calls                         660                       # number of times a function call or return occured
system.cpu.num_conditional_control_insts     16683844                       # number of instructions that are conditional controls
system.cpu.num_int_insts                    637137353                       # number of integer instructions
system.cpu.num_fp_insts                       9227435                       # number of float instructions
system.cpu.num_int_register_reads          1249374303                       # number of times the integer registers were read
system.cpu.num_int_register_writes          553481593                       # number of times the integer registers were written
system.cpu.num_fp_register_reads             12369393                       # number of times the floating registers were read
system.cpu.num_fp_register_writes             8527128                       # number of times the floating registers were written
system.cpu.num_cc_register_reads             84591760                       # number of times the CC registers were read
system.cpu.num_cc_register_writes           269610148                       # number of times the CC registers were written
system.cpu.num_mem_refs                     206857898                       # number of memory refs
system.cpu.num_load_insts                   144386317                       # Number of load instructions
system.cpu.num_store_insts                   62471581                       # Number of store instructions
system.cpu.num_idle_cycles                          0                       # Number of idle cycles
system.cpu.num_busy_cycles                 4052205385                       # Number of busy cycles
system.cpu.not_idle_fraction                        1                       # Percentage of non-idle cycles
system.cpu.idle_fraction                            0                       # Percentage of idle cycles
system.cpu.Branches                          16714695                       # Number of branches fetched
system.cpu.op_class::No_OpClass                   139      0.00%      0.00% # Class of executed instruction
system.cpu.op_class::IntAlu                 430201596     67.09%     67.09% # Class of executed instruction
system.cpu.op_class::IntMult                   215447      0.03%     67.12% # Class of executed instruction
system.cpu.op_class::IntDiv                        70      0.00%     67.12% # Class of executed instruction
system.cpu.op_class::FloatAdd                 3985520      0.62%     67.74% # Class of executed instruction
system.cpu.op_class::FloatCmp                       0      0.00%     67.74% # Class of executed instruction
system.cpu.op_class::FloatCvt                       0      0.00%     67.74% # Class of executed instruction
system.cpu.op_class::FloatMult                      0      0.00%     67.74% # Class of executed instruction
system.cpu.op_class::FloatDiv                       0      0.00%     67.74% # Class of executed instruction
system.cpu.op_class::FloatSqrt                      0      0.00%     67.74% # Class of executed instruction
system.cpu.op_class::SimdAdd                        0      0.00%     67.74% # Class of executed instruction
system.cpu.op_class::SimdAddAcc                     0      0.00%     67.74% # Class of executed instruction
system.cpu.op_class::SimdAlu                        0      0.00%     67.74% # Class of executed instruction
system.cpu.op_class::SimdCmp                        0      0.00%     67.74% # Class of executed instruction
system.cpu.op_class::SimdCvt                        0      0.00%     67.74% # Class of executed instruction
system.cpu.op_class::SimdMisc                       0      0.00%     67.74% # Class of executed instruction
system.cpu.op_class::SimdMult                       0      0.00%     67.74% # Class of executed instruction
system.cpu.op_class::SimdMultAcc                    0      0.00%     67.74% # Class of executed instruction
system.cpu.op_class::SimdShift                      0      0.00%     67.74% # Class of executed instruction
system.cpu.op_class::SimdShiftAcc                   0      0.00%     67.74% # Class of executed instruction
system.cpu.op_class::SimdSqrt                       0      0.00%     67.74% # Class of executed instruction
system.cpu.op_class::SimdFloatAdd                   0      0.00%     67.74% # Class of executed instruction
system.cpu.op_class::SimdFloatAlu                   0      0.00%     67.74% # Class of executed instruction
system.cpu.op_class::SimdFloatCmp                   0      0.00%     67.74% # Class of executed instruction
system.cpu.op_class::SimdFloatCvt                   0      0.00%     67.74% # Class of executed instruction
system.cpu.op_class::SimdFloatDiv                   0      0.00%     67.74% # Class of executed instruction
system.cpu.op_class::SimdFloatMisc                  0      0.00%     67.74% # Class of executed instruction
system.cpu.op_class::SimdFloatMult                  0      0.00%     67.74% # Class of executed instruction
system.cpu.op_class::SimdFloatMultAcc               0      0.00%     67.74% # Class of executed instruction
system.cpu.op_class::SimdFloatSqrt                  0      0.00%     67.74% # Class of executed instruction
system.cpu.op_class::MemRead                144386317     22.52%     90.26% # Class of executed instruction
system.cpu.op_class::MemWrite                62471581      9.74%    100.00% # Class of executed instruction
system.cpu.op_class::IprAccess                      0      0.00%    100.00% # Class of executed instruction
system.cpu.op_class::InstPrefetch                   0      0.00%    100.00% # Class of executed instruction
system.cpu.op_class::total                  641260670                       # Class of executed instruction
system.cpu.dcache.tags.replacements          13864213                       # number of replacements
system.cpu.dcache.tags.tagsinuse          1023.937976                       # Cycle average of tags in use
system.cpu.dcache.tags.total_refs           192992680                       # Total number of references to valid blocks.
system.cpu.dcache.tags.sampled_refs          13865237                       # Sample count of references to valid blocks.
system.cpu.dcache.tags.avg_refs             13.919176                       # Average number of references to valid blocks.
system.cpu.dcache.tags.warmup_cycle         241105500                       # Cycle when the warmup percentage was hit.
system.cpu.dcache.tags.occ_blocks::cpu.data  1023.937976                       # Average occupied blocks per requestor
system.cpu.dcache.tags.occ_percent::cpu.data     0.999939                       # Average percentage of cache occupancy
system.cpu.dcache.tags.occ_percent::total     0.999939                       # Average percentage of cache occupancy
system.cpu.dcache.tags.occ_task_id_blocks::1024         1024                       # Occupied blocks per task id
system.cpu.dcache.tags.age_task_id_blocks_1024::0           42                       # Occupied blocks per task id
system.cpu.dcache.tags.age_task_id_blocks_1024::1          395                       # Occupied blocks per task id
system.cpu.dcache.tags.age_task_id_blocks_1024::2          583                       # Occupied blocks per task id
system.cpu.dcache.tags.age_task_id_blocks_1024::3            1                       # Occupied blocks per task id
system.cpu.dcache.tags.age_task_id_blocks_1024::4            3                       # Occupied blocks per task id
system.cpu.dcache.tags.occ_task_id_percent::1024            1                       # Percentage of cache occupancy per task id
system.cpu.dcache.tags.tag_accesses         841296905                       # Number of tag accesses
system.cpu.dcache.tags.data_accesses        841296905                       # Number of data accesses
system.cpu.dcache.ReadReq_hits::cpu.data    143921326                       # number of ReadReq hits
system.cpu.dcache.ReadReq_hits::total       143921326                       # number of ReadReq hits
system.cpu.dcache.WriteReq_hits::cpu.data     49071354                       # number of WriteReq hits
system.cpu.dcache.WriteReq_hits::total       49071354                       # number of WriteReq hits
system.cpu.dcache.demand_hits::cpu.data     192992680                       # number of demand (read+write) hits
system.cpu.dcache.demand_hits::total        192992680                       # number of demand (read+write) hits
system.cpu.dcache.overall_hits::cpu.data    192992680                       # number of overall hits
system.cpu.dcache.overall_hits::total       192992680                       # number of overall hits
system.cpu.dcache.ReadReq_misses::cpu.data       465008                       # number of ReadReq misses
system.cpu.dcache.ReadReq_misses::total        465008                       # number of ReadReq misses
system.cpu.dcache.WriteReq_misses::cpu.data     13400229                       # number of WriteReq misses
system.cpu.dcache.WriteReq_misses::total     13400229                       # number of WriteReq misses
system.cpu.dcache.demand_misses::cpu.data     13865237                       # number of demand (read+write) misses
system.cpu.dcache.demand_misses::total       13865237                       # number of demand (read+write) misses
system.cpu.dcache.overall_misses::cpu.data     13865237                       # number of overall misses
system.cpu.dcache.overall_misses::total      13865237                       # number of overall misses
system.cpu.dcache.ReadReq_miss_latency::cpu.data  36204310500                       # number of ReadReq miss cycles
system.cpu.dcache.ReadReq_miss_latency::total  36204310500                       # number of ReadReq miss cycles
system.cpu.dcache.WriteReq_miss_latency::cpu.data 1057291916000                       # number of WriteReq miss cycles
system.cpu.dcache.WriteReq_miss_latency::total 1057291916000                       # number of WriteReq miss cycles
system.cpu.dcache.demand_miss_latency::cpu.data 1093496226500                       # number of demand (read+write) miss cycles
system.cpu.dcache.demand_miss_latency::total 1093496226500                       # number of demand (read+write) miss cycles
system.cpu.dcache.overall_miss_latency::cpu.data 1093496226500                       # number of overall miss cycles
system.cpu.dcache.overall_miss_latency::total 1093496226500                       # number of overall miss cycles
system.cpu.dcache.ReadReq_accesses::cpu.data    144386334                       # number of ReadReq accesses(hits+misses)
system.cpu.dcache.ReadReq_accesses::total    144386334                       # number of ReadReq accesses(hits+misses)
system.cpu.dcache.WriteReq_accesses::cpu.data     62471583                       # number of WriteReq accesses(hits+misses)
system.cpu.dcache.WriteReq_accesses::total     62471583                       # number of WriteReq accesses(hits+misses)
system.cpu.dcache.demand_accesses::cpu.data    206857917                       # number of demand (read+write) accesses
system.cpu.dcache.demand_accesses::total    206857917                       # number of demand (read+write) accesses
system.cpu.dcache.overall_accesses::cpu.data    206857917                       # number of overall (read+write) accesses
system.cpu.dcache.overall_accesses::total    206857917                       # number of overall (read+write) accesses
system.cpu.dcache.ReadReq_miss_rate::cpu.data     0.003221                       # miss rate for ReadReq accesses
system.cpu.dcache.ReadReq_miss_rate::total     0.003221                       # miss rate for ReadReq accesses
system.cpu.dcache.WriteReq_miss_rate::cpu.data     0.214501                       # miss rate for WriteReq accesses
system.cpu.dcache.WriteReq_miss_rate::total     0.214501                       # miss rate for WriteReq accesses
system.cpu.dcache.demand_miss_rate::cpu.data     0.067028                       # miss rate for demand accesses
system.cpu.dcache.demand_miss_rate::total     0.067028                       # miss rate for demand accesses
system.cpu.dcache.overall_miss_rate::cpu.data     0.067028                       # miss rate for overall accesses
system.cpu.dcache.overall_miss_rate::total     0.067028                       # miss rate for overall accesses
system.cpu.dcache.ReadReq_avg_miss_latency::cpu.data 77857.392776                       # average ReadReq miss latency
system.cpu.dcache.ReadReq_avg_miss_latency::total 77857.392776                       # average ReadReq miss latency
system.cpu.dcache.WriteReq_avg_miss_latency::cpu.data 78901.033408                       # average WriteReq miss latency
system.cpu.dcache.WriteReq_avg_miss_latency::total 78901.033408                       # average WriteReq miss latency
system.cpu.dcache.demand_avg_miss_latency::cpu.data 78866.032113                       # average overall miss latency
system.cpu.dcache.demand_avg_miss_latency::total 78866.032113                       # average overall miss latency
system.cpu.dcache.overall_avg_miss_latency::cpu.data 78866.032113                       # average overall miss latency
system.cpu.dcache.overall_avg_miss_latency::total 78866.032113                       # average overall miss latency
system.cpu.dcache.blocked_cycles::no_mshrs            0                       # number of cycles access was blocked
system.cpu.dcache.blocked_cycles::no_targets            0                       # number of cycles access was blocked
system.cpu.dcache.blocked::no_mshrs                 0                       # number of cycles access was blocked
system.cpu.dcache.blocked::no_targets               0                       # number of cycles access was blocked
system.cpu.dcache.avg_blocked_cycles::no_mshrs          nan                       # average number of cycles each access was blocked
system.cpu.dcache.avg_blocked_cycles::no_targets          nan                       # average number of cycles each access was blocked
system.cpu.dcache.fast_writes                       0                       # number of fast writes performed
system.cpu.dcache.cache_copies                      0                       # number of cache copies performed
system.cpu.dcache.writebacks::writebacks     13506392                       # number of writebacks
system.cpu.dcache.writebacks::total          13506392                       # number of writebacks
system.cpu.dcache.ReadReq_mshr_misses::cpu.data       465008                       # number of ReadReq MSHR misses
system.cpu.dcache.ReadReq_mshr_misses::total       465008                       # number of ReadReq MSHR misses
system.cpu.dcache.WriteReq_mshr_misses::cpu.data     13400229                       # number of WriteReq MSHR misses
system.cpu.dcache.WriteReq_mshr_misses::total     13400229                       # number of WriteReq MSHR misses
system.cpu.dcache.demand_mshr_misses::cpu.data     13865237                       # number of demand (read+write) MSHR misses
system.cpu.dcache.demand_mshr_misses::total     13865237                       # number of demand (read+write) MSHR misses
system.cpu.dcache.overall_mshr_misses::cpu.data     13865237                       # number of overall MSHR misses
system.cpu.dcache.overall_mshr_misses::total     13865237                       # number of overall MSHR misses
system.cpu.dcache.ReadReq_mshr_miss_latency::cpu.data  35739302500                       # number of ReadReq MSHR miss cycles
system.cpu.dcache.ReadReq_mshr_miss_latency::total  35739302500                       # number of ReadReq MSHR miss cycles
system.cpu.dcache.WriteReq_mshr_miss_latency::cpu.data 1043891687000                       # number of WriteReq MSHR miss cycles
system.cpu.dcache.WriteReq_mshr_miss_latency::total 1043891687000                       # number of WriteReq MSHR miss cycles
system.cpu.dcache.demand_mshr_miss_latency::cpu.data 1079630989500                       # number of demand (read+write) MSHR miss cycles
system.cpu.dcache.demand_mshr_miss_latency::total 1079630989500                       # number of demand (read+write) MSHR miss cycles
system.cpu.dcache.overall_mshr_miss_latency::cpu.data 1079630989500                       # number of overall MSHR miss cycles
system.cpu.dcache.overall_mshr_miss_latency::total 1079630989500                       # number of overall MSHR miss cycles
system.cpu.dcache.ReadReq_mshr_miss_rate::cpu.data     0.003221                       # mshr miss rate for ReadReq accesses
system.cpu.dcache.ReadReq_mshr_miss_rate::total     0.003221                       # mshr miss rate for ReadReq accesses
system.cpu.dcache.WriteReq_mshr_miss_rate::cpu.data     0.214501                       # mshr miss rate for WriteReq accesses
system.cpu.dcache.WriteReq_mshr_miss_rate::total     0.214501                       # mshr miss rate for WriteReq accesses
system.cpu.dcache.demand_mshr_miss_rate::cpu.data     0.067028                       # mshr miss rate for demand accesses
system.cpu.dcache.demand_mshr_miss_rate::total     0.067028                       # mshr miss rate for demand accesses
system.cpu.dcache.overall_mshr_miss_rate::cpu.data     0.067028                       # mshr miss rate for overall accesses
system.cpu.dcache.overall_mshr_miss_rate::total     0.067028                       # mshr miss rate for overall accesses
system.cpu.dcache.ReadReq_avg_mshr_miss_latency::cpu.data 76857.392776                       # average ReadReq mshr miss latency
system.cpu.dcache.ReadReq_avg_mshr_miss_latency::total 76857.392776                       # average ReadReq mshr miss latency
system.cpu.dcache.WriteReq_avg_mshr_miss_latency::cpu.data 77901.033408                       # average WriteReq mshr miss latency
system.cpu.dcache.WriteReq_avg_mshr_miss_latency::total 77901.033408                       # average WriteReq mshr miss latency
system.cpu.dcache.demand_avg_mshr_miss_latency::cpu.data 77866.032113                       # average overall mshr miss latency
system.cpu.dcache.demand_avg_mshr_miss_latency::total 77866.032113                       # average overall mshr miss latency
system.cpu.dcache.overall_avg_mshr_miss_latency::cpu.data 77866.032113                       # average overall mshr miss latency
system.cpu.dcache.overall_avg_mshr_miss_latency::total 77866.032113                       # average overall mshr miss latency
system.cpu.dcache.no_allocate_misses                0                       # Number of misses that were no-allocate
system.cpu.dtb_walker_cache.tags.replacements            0                       # number of replacements
system.cpu.dtb_walker_cache.tags.tagsinuse            0                       # Cycle average of tags in use
system.cpu.dtb_walker_cache.tags.total_refs            0                       # Total number of references to valid blocks.
system.cpu.dtb_walker_cache.tags.sampled_refs            0                       # Sample count of references to valid blocks.
system.cpu.dtb_walker_cache.tags.avg_refs          nan                       # Average number of references to valid blocks.
system.cpu.dtb_walker_cache.tags.warmup_cycle            0                       # Cycle when the warmup percentage was hit.
system.cpu.dtb_walker_cache.tags.tag_accesses            0                       # Number of tag accesses
system.cpu.dtb_walker_cache.tags.data_accesses            0                       # Number of data accesses
system.cpu.dtb_walker_cache.blocked_cycles::no_mshrs            0                       # number of cycles access was blocked
system.cpu.dtb_walker_cache.blocked_cycles::no_targets            0                       # number of cycles access was blocked
system.cpu.dtb_walker_cache.blocked::no_mshrs            0                       # number of cycles access was blocked
system.cpu.dtb_walker_cache.blocked::no_targets            0                       # number of cycles access was blocked
system.cpu.dtb_walker_cache.avg_blocked_cycles::no_mshrs          nan                       # average number of cycles each access was blocked
system.cpu.dtb_walker_cache.avg_blocked_cycles::no_targets          nan                       # average number of cycles each access was blocked
system.cpu.dtb_walker_cache.fast_writes             0                       # number of fast writes performed
system.cpu.dtb_walker_cache.cache_copies            0                       # number of cache copies performed
system.cpu.dtb_walker_cache.no_allocate_misses            0                       # Number of misses that were no-allocate
system.cpu.icache.tags.replacements                58                       # number of replacements
system.cpu.icache.tags.tagsinuse           754.090235                       # Cycle average of tags in use
system.cpu.icache.tags.total_refs           739546682                       # Total number of references to valid blocks.
system.cpu.icache.tags.sampled_refs               865                       # Sample count of references to valid blocks.
system.cpu.icache.tags.avg_refs          854967.262428                       # Average number of references to valid blocks.
system.cpu.icache.tags.warmup_cycle                 0                       # Cycle when the warmup percentage was hit.
system.cpu.icache.tags.occ_blocks::cpu.inst   754.090235                       # Average occupied blocks per requestor
system.cpu.icache.tags.occ_percent::cpu.inst     0.736416                       # Average percentage of cache occupancy
system.cpu.icache.tags.occ_percent::total     0.736416                       # Average percentage of cache occupancy
system.cpu.icache.tags.occ_task_id_blocks::1024          807                       # Occupied blocks per task id
system.cpu.icache.tags.age_task_id_blocks_1024::4          807                       # Occupied blocks per task id
system.cpu.icache.tags.occ_task_id_percent::1024     0.788086                       # Percentage of cache occupancy per task id
system.cpu.icache.tags.tag_accesses        5916381241                       # Number of tag accesses
system.cpu.icache.tags.data_accesses       5916381241                       # Number of data accesses
system.cpu.icache.ReadReq_hits::cpu.inst    739546682                       # number of ReadReq hits
system.cpu.icache.ReadReq_hits::total       739546682                       # number of ReadReq hits
system.cpu.icache.demand_hits::cpu.inst     739546682                       # number of demand (read+write) hits
system.cpu.icache.demand_hits::total        739546682                       # number of demand (read+write) hits
system.cpu.icache.overall_hits::cpu.inst    739546682                       # number of overall hits
system.cpu.icache.overall_hits::total       739546682                       # number of overall hits
system.cpu.icache.ReadReq_misses::cpu.inst          865                       # number of ReadReq misses
system.cpu.icache.ReadReq_misses::total           865                       # number of ReadReq misses
system.cpu.icache.demand_misses::cpu.inst          865                       # number of demand (read+write) misses
system.cpu.icache.demand_misses::total            865                       # number of demand (read+write) misses
system.cpu.icache.overall_misses::cpu.inst          865                       # number of overall misses
system.cpu.icache.overall_misses::total           865                       # number of overall misses
system.cpu.icache.ReadReq_miss_latency::cpu.inst     67120000                       # number of ReadReq miss cycles
system.cpu.icache.ReadReq_miss_latency::total     67120000                       # number of ReadReq miss cycles
system.cpu.icache.demand_miss_latency::cpu.inst     67120000                       # number of demand (read+write) miss cycles
system.cpu.icache.demand_miss_latency::total     67120000                       # number of demand (read+write) miss cycles
system.cpu.icache.overall_miss_latency::cpu.inst     67120000                       # number of overall miss cycles
system.cpu.icache.overall_miss_latency::total     67120000                       # number of overall miss cycles
system.cpu.icache.ReadReq_accesses::cpu.inst    739547547                       # number of ReadReq accesses(hits+misses)
system.cpu.icache.ReadReq_accesses::total    739547547                       # number of ReadReq accesses(hits+misses)
system.cpu.icache.demand_accesses::cpu.inst    739547547                       # number of demand (read+write) accesses
system.cpu.icache.demand_accesses::total    739547547                       # number of demand (read+write) accesses
system.cpu.icache.overall_accesses::cpu.inst    739547547                       # number of overall (read+write) accesses
system.cpu.icache.overall_accesses::total    739547547                       # number of overall (read+write) accesses
system.cpu.icache.ReadReq_miss_rate::cpu.inst     0.000001                       # miss rate for ReadReq accesses
system.cpu.icache.ReadReq_miss_rate::total     0.000001                       # miss rate for ReadReq accesses
system.cpu.icache.demand_miss_rate::cpu.inst     0.000001                       # miss rate for demand accesses
system.cpu.icache.demand_miss_rate::total     0.000001                       # miss rate for demand accesses
system.cpu.icache.overall_miss_rate::cpu.inst     0.000001                       # miss rate for overall accesses
system.cpu.icache.overall_miss_rate::total     0.000001                       # miss rate for overall accesses
system.cpu.icache.ReadReq_avg_miss_latency::cpu.inst 77595.375723                       # average ReadReq miss latency
system.cpu.icache.ReadReq_avg_miss_latency::total 77595.375723                       # average ReadReq miss latency
system.cpu.icache.demand_avg_miss_latency::cpu.inst 77595.375723                       # average overall miss latency
system.cpu.icache.demand_avg_miss_latency::total 77595.375723                       # average overall miss latency
system.cpu.icache.overall_avg_miss_latency::cpu.inst 77595.375723                       # average overall miss latency
system.cpu.icache.overall_avg_miss_latency::total 77595.375723                       # average overall miss latency
system.cpu.icache.blocked_cycles::no_mshrs            0                       # number of cycles access was blocked
system.cpu.icache.blocked_cycles::no_targets            0                       # number of cycles access was blocked
system.cpu.icache.blocked::no_mshrs                 0                       # number of cycles access was blocked
system.cpu.icache.blocked::no_targets               0                       # number of cycles access was blocked
system.cpu.icache.avg_blocked_cycles::no_mshrs          nan                       # average number of cycles each access was blocked
system.cpu.icache.avg_blocked_cycles::no_targets          nan                       # average number of cycles each access was blocked
system.cpu.icache.fast_writes                       0                       # number of fast writes performed
system.cpu.icache.cache_copies                      0                       # number of cache copies performed
system.cpu.icache.writebacks::writebacks           58                       # number of writebacks
system.cpu.icache.writebacks::total                58                       # number of writebacks
system.cpu.icache.ReadReq_mshr_misses::cpu.inst          865                       # number of ReadReq MSHR misses
system.cpu.icache.ReadReq_mshr_misses::total          865                       # number of ReadReq MSHR misses
system.cpu.icache.demand_mshr_misses::cpu.inst          865                       # number of demand (read+write) MSHR misses
system.cpu.icache.demand_mshr_misses::total          865                       # number of demand (read+write) MSHR misses
system.cpu.icache.overall_mshr_misses::cpu.inst          865                       # number of overall MSHR misses
system.cpu.icache.overall_mshr_misses::total          865                       # number of overall MSHR misses
system.cpu.icache.ReadReq_mshr_miss_latency::cpu.inst     66255000                       # number of ReadReq MSHR miss cycles
system.cpu.icache.ReadReq_mshr_miss_latency::total     66255000                       # number of ReadReq MSHR miss cycles
system.cpu.icache.demand_mshr_miss_latency::cpu.inst     66255000                       # number of demand (read+write) MSHR miss cycles
system.cpu.icache.demand_mshr_miss_latency::total     66255000                       # number of demand (read+write) MSHR miss cycles
system.cpu.icache.overall_mshr_miss_latency::cpu.inst     66255000                       # number of overall MSHR miss cycles
system.cpu.icache.overall_mshr_miss_latency::total     66255000                       # number of overall MSHR miss cycles
system.cpu.icache.ReadReq_mshr_miss_rate::cpu.inst     0.000001                       # mshr miss rate for ReadReq accesses
system.cpu.icache.ReadReq_mshr_miss_rate::total     0.000001                       # mshr miss rate for ReadReq accesses
system.cpu.icache.demand_mshr_miss_rate::cpu.inst     0.000001                       # mshr miss rate for demand accesses
system.cpu.icache.demand_mshr_miss_rate::total     0.000001                       # mshr miss rate for demand accesses
system.cpu.icache.overall_mshr_miss_rate::cpu.inst     0.000001                       # mshr miss rate for overall accesses
system.cpu.icache.overall_mshr_miss_rate::total     0.000001                       # mshr miss rate for overall accesses
system.cpu.icache.ReadReq_avg_mshr_miss_latency::cpu.inst 76595.375723                       # average ReadReq mshr miss latency
system.cpu.icache.ReadReq_avg_mshr_miss_latency::total 76595.375723                       # average ReadReq mshr miss latency
system.cpu.icache.demand_avg_mshr_miss_latency::cpu.inst 76595.375723                       # average overall mshr miss latency
system.cpu.icache.demand_avg_mshr_miss_latency::total 76595.375723                       # average overall mshr miss latency
system.cpu.icache.overall_avg_mshr_miss_latency::cpu.inst 76595.375723                       # average overall mshr miss latency
system.cpu.icache.overall_avg_mshr_miss_latency::total 76595.375723                       # average overall mshr miss latency
system.cpu.icache.no_allocate_misses                0                       # Number of misses that were no-allocate
system.cpu.itb_walker_cache.tags.replacements            0                       # number of replacements
system.cpu.itb_walker_cache.tags.tagsinuse            0                       # Cycle average of tags in use
system.cpu.itb_walker_cache.tags.total_refs            0                       # Total number of references to valid blocks.
system.cpu.itb_walker_cache.tags.sampled_refs            0                       # Sample count of references to valid blocks.
system.cpu.itb_walker_cache.tags.avg_refs          nan                       # Average number of references to valid blocks.
system.cpu.itb_walker_cache.tags.warmup_cycle            0                       # Cycle when the warmup percentage was hit.
system.cpu.itb_walker_cache.tags.tag_accesses            0                       # Number of tag accesses
system.cpu.itb_walker_cache.tags.data_accesses            0                       # Number of data accesses
system.cpu.itb_walker_cache.blocked_cycles::no_mshrs            0                       # number of cycles access was blocked
system.cpu.itb_walker_cache.blocked_cycles::no_targets            0                       # number of cycles access was blocked
system.cpu.itb_walker_cache.blocked::no_mshrs            0                       # number of cycles access was blocked
system.cpu.itb_walker_cache.blocked::no_targets            0                       # number of cycles access was blocked
system.cpu.itb_walker_cache.avg_blocked_cycles::no_mshrs          nan                       # average number of cycles each access was blocked
system.cpu.itb_walker_cache.avg_blocked_cycles::no_targets          nan                       # average number of cycles each access was blocked
system.cpu.itb_walker_cache.fast_writes             0                       # number of fast writes performed
system.cpu.itb_walker_cache.cache_copies            0                       # number of cache copies performed
system.cpu.itb_walker_cache.no_allocate_misses            0                       # Number of misses that were no-allocate
system.l2.tags.replacements                  13833356                       # number of replacements
system.l2.tags.tagsinuse                 31784.106400                       # Cycle average of tags in use
system.l2.tags.total_refs                      464000                       # Total number of references to valid blocks.
system.l2.tags.sampled_refs                  13866124                       # Sample count of references to valid blocks.
system.l2.tags.avg_refs                      0.033463                       # Average number of references to valid blocks.
system.l2.tags.warmup_cycle              1877322894000                       # Cycle when the warmup percentage was hit.
system.l2.tags.occ_blocks::writebacks    29608.082961                       # Average occupied blocks per requestor
system.l2.tags.occ_blocks::cpu.inst          0.788661                       # Average occupied blocks per requestor
system.l2.tags.occ_blocks::cpu.data       2175.234778                       # Average occupied blocks per requestor
system.l2.tags.occ_percent::writebacks       0.903567                       # Average percentage of cache occupancy
system.l2.tags.occ_percent::cpu.inst         0.000024                       # Average percentage of cache occupancy
system.l2.tags.occ_percent::cpu.data         0.066383                       # Average percentage of cache occupancy
system.l2.tags.occ_percent::total            0.969974                       # Average percentage of cache occupancy
system.l2.tags.occ_task_id_blocks::1024         32768                       # Occupied blocks per task id
system.l2.tags.age_task_id_blocks_1024::0           42                       # Occupied blocks per task id
system.l2.tags.age_task_id_blocks_1024::1          394                       # Occupied blocks per task id
system.l2.tags.age_task_id_blocks_1024::2         3954                       # Occupied blocks per task id
system.l2.tags.age_task_id_blocks_1024::3        28378                       # Occupied blocks per task id
system.l2.tags.occ_task_id_percent::1024            1                       # Percentage of cache occupancy per task id
system.l2.tags.tag_accesses                  54996725                       # Number of tag accesses
system.l2.tags.data_accesses                 54996725                       # Number of data accesses
system.l2.WritebackDirty_hits::writebacks     13506392                       # number of WritebackDirty hits
system.l2.WritebackDirty_hits::total         13506392                       # number of WritebackDirty hits
system.l2.WritebackClean_hits::writebacks           58                       # number of WritebackClean hits
system.l2.WritebackClean_hits::total               58                       # number of WritebackClean hits
system.l2.ReadExReq_hits::cpu.data                  7                       # number of ReadExReq hits
system.l2.ReadExReq_hits::total                     7                       # number of ReadExReq hits
system.l2.ReadCleanReq_hits::cpu.inst               8                       # number of ReadCleanReq hits
system.l2.ReadCleanReq_hits::total                  8                       # number of ReadCleanReq hits
system.l2.ReadSharedReq_hits::cpu.data              1                       # number of ReadSharedReq hits
system.l2.ReadSharedReq_hits::total                 1                       # number of ReadSharedReq hits
system.l2.demand_hits::cpu.inst                     8                       # number of demand (read+write) hits
system.l2.demand_hits::cpu.data                     8                       # number of demand (read+write) hits
system.l2.demand_hits::total                       16                       # number of demand (read+write) hits
system.l2.overall_hits::cpu.inst                    8                       # number of overall hits
system.l2.overall_hits::cpu.data                    8                       # number of overall hits
system.l2.overall_hits::total                      16                       # number of overall hits
system.l2.ReadExReq_misses::cpu.data         13400222                       # number of ReadExReq misses
system.l2.ReadExReq_misses::total            13400222                       # number of ReadExReq misses
system.l2.ReadCleanReq_misses::cpu.inst           857                       # number of ReadCleanReq misses
system.l2.ReadCleanReq_misses::total              857                       # number of ReadCleanReq misses
system.l2.ReadSharedReq_misses::cpu.data       465007                       # number of ReadSharedReq misses
system.l2.ReadSharedReq_misses::total          465007                       # number of ReadSharedReq misses
system.l2.demand_misses::cpu.inst                 857                       # number of demand (read+write) misses
system.l2.demand_misses::cpu.data            13865229                       # number of demand (read+write) misses
system.l2.demand_misses::total               13866086                       # number of demand (read+write) misses
system.l2.overall_misses::cpu.inst                857                       # number of overall misses
system.l2.overall_misses::cpu.data           13865229                       # number of overall misses
system.l2.overall_misses::total              13866086                       # number of overall misses
system.l2.ReadExReq_miss_latency::cpu.data 1023791270000                       # number of ReadExReq miss cycles
system.l2.ReadExReq_miss_latency::total  1023791270000                       # number of ReadExReq miss cycles
system.l2.ReadCleanReq_miss_latency::cpu.inst     64872500                       # number of ReadCleanReq miss cycles
system.l2.ReadCleanReq_miss_latency::total     64872500                       # number of ReadCleanReq miss cycles
system.l2.ReadSharedReq_miss_latency::cpu.data  35041780000                       # number of ReadSharedReq miss cycles
system.l2.ReadSharedReq_miss_latency::total  35041780000                       # number of ReadSharedReq miss cycles
system.l2.demand_miss_latency::cpu.inst      64872500                       # number of demand (read+write) miss cycles
system.l2.demand_miss_latency::cpu.data  1058833050000                       # number of demand (read+write) miss cycles
system.l2.demand_miss_latency::total     1058897922500                       # number of demand (read+write) miss cycles
system.l2.overall_miss_latency::cpu.inst     64872500                       # number of overall miss cycles
system.l2.overall_miss_latency::cpu.data 1058833050000                       # number of overall miss cycles
system.l2.overall_miss_latency::total    1058897922500                       # number of overall miss cycles
system.l2.WritebackDirty_accesses::writebacks     13506392                       # number of WritebackDirty accesses(hits+misses)
system.l2.WritebackDirty_accesses::total     13506392                       # number of WritebackDirty accesses(hits+misses)
system.l2.WritebackClean_accesses::writebacks           58                       # number of WritebackClean accesses(hits+misses)
system.l2.WritebackClean_accesses::total           58                       # number of WritebackClean accesses(hits+misses)
system.l2.ReadExReq_accesses::cpu.data       13400229                       # number of ReadExReq accesses(hits+misses)
system.l2.ReadExReq_accesses::total          13400229                       # number of ReadExReq accesses(hits+misses)
system.l2.ReadCleanReq_accesses::cpu.inst          865                       # number of ReadCleanReq accesses(hits+misses)
system.l2.ReadCleanReq_accesses::total            865                       # number of ReadCleanReq accesses(hits+misses)
system.l2.ReadSharedReq_accesses::cpu.data       465008                       # number of ReadSharedReq accesses(hits+misses)
system.l2.ReadSharedReq_accesses::total        465008                       # number of ReadSharedReq accesses(hits+misses)
system.l2.demand_accesses::cpu.inst               865                       # number of demand (read+write) accesses
system.l2.demand_accesses::cpu.data          13865237                       # number of demand (read+write) accesses
system.l2.demand_accesses::total             13866102                       # number of demand (read+write) accesses
system.l2.overall_accesses::cpu.inst              865                       # number of overall (read+write) accesses
system.l2.overall_accesses::cpu.data         13865237                       # number of overall (read+write) accesses
system.l2.overall_accesses::total            13866102                       # number of overall (read+write) accesses
system.l2.ReadExReq_miss_rate::cpu.data      0.999999                       # miss rate for ReadExReq accesses
system.l2.ReadExReq_miss_rate::total         0.999999                       # miss rate for ReadExReq accesses
system.l2.ReadCleanReq_miss_rate::cpu.inst     0.990751                       # miss rate for ReadCleanReq accesses
system.l2.ReadCleanReq_miss_rate::total      0.990751                       # miss rate for ReadCleanReq accesses
system.l2.ReadSharedReq_miss_rate::cpu.data     0.999998                       # miss rate for ReadSharedReq accesses
system.l2.ReadSharedReq_miss_rate::total     0.999998                       # miss rate for ReadSharedReq accesses
system.l2.demand_miss_rate::cpu.inst         0.990751                       # miss rate for demand accesses
system.l2.demand_miss_rate::cpu.data         0.999999                       # miss rate for demand accesses
system.l2.demand_miss_rate::total            0.999999                       # miss rate for demand accesses
system.l2.overall_miss_rate::cpu.inst        0.990751                       # miss rate for overall accesses
system.l2.overall_miss_rate::cpu.data        0.999999                       # miss rate for overall accesses
system.l2.overall_miss_rate::total           0.999999                       # miss rate for overall accesses
system.l2.ReadExReq_avg_miss_latency::cpu.data 76401.067833                       # average ReadExReq miss latency
system.l2.ReadExReq_avg_miss_latency::total 76401.067833                       # average ReadExReq miss latency
system.l2.ReadCleanReq_avg_miss_latency::cpu.inst 75697.199533                       # average ReadCleanReq miss latency
system.l2.ReadCleanReq_avg_miss_latency::total 75697.199533                       # average ReadCleanReq miss latency
system.l2.ReadSharedReq_avg_miss_latency::cpu.data 75357.532252                       # average ReadSharedReq miss latency
system.l2.ReadSharedReq_avg_miss_latency::total 75357.532252                       # average ReadSharedReq miss latency
system.l2.demand_avg_miss_latency::cpu.inst 75697.199533                       # average overall miss latency
system.l2.demand_avg_miss_latency::cpu.data 76366.070117                       # average overall miss latency
system.l2.demand_avg_miss_latency::total 76366.028777                       # average overall miss latency
system.l2.overall_avg_miss_latency::cpu.inst 75697.199533                       # average overall miss latency
system.l2.overall_avg_miss_latency::cpu.data 76366.070117                       # average overall miss latency
system.l2.overall_avg_miss_latency::total 76366.028777                       # average overall miss latency
system.l2.blocked_cycles::no_mshrs                  0                       # number of cycles access was blocked
system.l2.blocked_cycles::no_targets                0                       # number of cycles access was blocked
system.l2.blocked::no_mshrs                         0                       # number of cycles access was blocked
system.l2.blocked::no_targets                       0                       # number of cycles access was blocked
system.l2.avg_blocked_cycles::no_mshrs            nan                       # average number of cycles each access was blocked
system.l2.avg_blocked_cycles::no_targets          nan                       # average number of cycles each access was blocked
system.l2.fast_writes                               0                       # number of fast writes performed
system.l2.cache_copies                              0                       # number of cache copies performed
system.l2.writebacks::writebacks             13506384                       # number of writebacks
system.l2.writebacks::total                  13506384                       # number of writebacks
system.l2.CleanEvict_mshr_misses::writebacks           19                       # number of CleanEvict MSHR misses
system.l2.CleanEvict_mshr_misses::total            19                       # number of CleanEvict MSHR misses
system.l2.ReadExReq_mshr_misses::cpu.data     13400222                       # number of ReadExReq MSHR misses
system.l2.ReadExReq_mshr_misses::total       13400222                       # number of ReadExReq MSHR misses
system.l2.ReadCleanReq_mshr_misses::cpu.inst          857                       # number of ReadCleanReq MSHR misses
system.l2.ReadCleanReq_mshr_misses::total          857                       # number of ReadCleanReq MSHR misses
system.l2.ReadSharedReq_mshr_misses::cpu.data       465007                       # number of ReadSharedReq MSHR misses
system.l2.ReadSharedReq_mshr_misses::total       465007                       # number of ReadSharedReq MSHR misses
system.l2.demand_mshr_misses::cpu.inst            857                       # number of demand (read+write) MSHR misses
system.l2.demand_mshr_misses::cpu.data       13865229                       # number of demand (read+write) MSHR misses
system.l2.demand_mshr_misses::total          13866086                       # number of demand (read+write) MSHR misses
system.l2.overall_mshr_misses::cpu.inst           857                       # number of overall MSHR misses
system.l2.overall_mshr_misses::cpu.data      13865229                       # number of overall MSHR misses
system.l2.overall_mshr_misses::total         13866086                       # number of overall MSHR misses
system.l2.ReadExReq_mshr_miss_latency::cpu.data 889789050000                       # number of ReadExReq MSHR miss cycles
system.l2.ReadExReq_mshr_miss_latency::total 889789050000                       # number of ReadExReq MSHR miss cycles
system.l2.ReadCleanReq_mshr_miss_latency::cpu.inst     56302500                       # number of ReadCleanReq MSHR miss cycles
system.l2.ReadCleanReq_mshr_miss_latency::total     56302500                       # number of ReadCleanReq MSHR miss cycles
system.l2.ReadSharedReq_mshr_miss_latency::cpu.data  30391710000                       # number of ReadSharedReq MSHR miss cycles
system.l2.ReadSharedReq_mshr_miss_latency::total  30391710000                       # number of ReadSharedReq MSHR miss cycles
system.l2.demand_mshr_miss_latency::cpu.inst     56302500                       # number of demand (read+write) MSHR miss cycles
system.l2.demand_mshr_miss_latency::cpu.data 920180760000                       # number of demand (read+write) MSHR miss cycles
system.l2.demand_mshr_miss_latency::total 920237062500                       # number of demand (read+write) MSHR miss cycles
system.l2.overall_mshr_miss_latency::cpu.inst     56302500                       # number of overall MSHR miss cycles
system.l2.overall_mshr_miss_latency::cpu.data 920180760000                       # number of overall MSHR miss cycles
system.l2.overall_mshr_miss_latency::total 920237062500                       # number of overall MSHR miss cycles
system.l2.CleanEvict_mshr_miss_rate::writebacks          inf                       # mshr miss rate for CleanEvict accesses
system.l2.CleanEvict_mshr_miss_rate::total          inf                       # mshr miss rate for CleanEvict accesses
system.l2.ReadExReq_mshr_miss_rate::cpu.data     0.999999                       # mshr miss rate for ReadExReq accesses
system.l2.ReadExReq_mshr_miss_rate::total     0.999999                       # mshr miss rate for ReadExReq accesses
system.l2.ReadCleanReq_mshr_miss_rate::cpu.inst     0.990751                       # mshr miss rate for ReadCleanReq accesses
system.l2.ReadCleanReq_mshr_miss_rate::total     0.990751                       # mshr miss rate for ReadCleanReq accesses
system.l2.ReadSharedReq_mshr_miss_rate::cpu.data     0.999998                       # mshr miss rate for ReadSharedReq accesses
system.l2.ReadSharedReq_mshr_miss_rate::total     0.999998                       # mshr miss rate for ReadSharedReq accesses
system.l2.demand_mshr_miss_rate::cpu.inst     0.990751                       # mshr miss rate for demand accesses
system.l2.demand_mshr_miss_rate::cpu.data     0.999999                       # mshr miss rate for demand accesses
system.l2.demand_mshr_miss_rate::total       0.999999                       # mshr miss rate for demand accesses
system.l2.overall_mshr_miss_rate::cpu.inst     0.990751                       # mshr miss rate for overall accesses
system.l2.overall_mshr_miss_rate::cpu.data     0.999999                       # mshr miss rate for overall accesses
system.l2.overall_mshr_miss_rate::total      0.999999                       # mshr miss rate for overall accesses
system.l2.ReadExReq_avg_mshr_miss_latency::cpu.data 66401.067833                       # average ReadExReq mshr miss latency
system.l2.ReadExReq_avg_mshr_miss_latency::total 66401.067833                       # average ReadExReq mshr miss latency
system.l2.ReadCleanReq_avg_mshr_miss_latency::cpu.inst 65697.199533                       # average ReadCleanReq mshr miss latency
system.l2.ReadCleanReq_avg_mshr_miss_latency::total 65697.199533                       # average ReadCleanReq mshr miss latency
system.l2.ReadSharedReq_avg_mshr_miss_latency::cpu.data 65357.532252                       # average ReadSharedReq mshr miss latency
system.l2.ReadSharedReq_avg_mshr_miss_latency::total 65357.532252                       # average ReadSharedReq mshr miss latency
system.l2.demand_avg_mshr_miss_latency::cpu.inst 65697.199533                       # average overall mshr miss latency
system.l2.demand_avg_mshr_miss_latency::cpu.data 66366.070117                       # average overall mshr miss latency
system.l2.demand_avg_mshr_miss_latency::total 66366.028777                       # average overall mshr miss latency
system.l2.overall_avg_mshr_miss_latency::cpu.inst 65697.199533                       # average overall mshr miss latency
system.l2.overall_avg_mshr_miss_latency::cpu.data 66366.070117                       # average overall mshr miss latency
system.l2.overall_avg_mshr_miss_latency::total 66366.028777                       # average overall mshr miss latency
system.l2.no_allocate_misses                        0                       # Number of misses that were no-allocate
system.membus.trans_dist::ReadResp             465864                       # Transaction distribution
system.membus.trans_dist::WritebackDirty     13506384                       # Transaction distribution
system.membus.trans_dist::CleanEvict           326123                       # Transaction distribution
system.membus.trans_dist::ReadExReq          13400222                       # Transaction distribution
system.membus.trans_dist::ReadExResp         13400222                       # Transaction distribution
system.membus.trans_dist::ReadSharedReq        465864                       # Transaction distribution
system.membus.pkt_count_system.l2.mem_side::system.mem_ctrls.port     41564679                       # Packet count per connected master and slave (bytes)
system.membus.pkt_count_system.l2.mem_side::total     41564679                       # Packet count per connected master and slave (bytes)
system.membus.pkt_count::total               41564679                       # Packet count per connected master and slave (bytes)
system.membus.pkt_size_system.l2.mem_side::system.mem_ctrls.port    875919040                       # Cumulative packet size per connected master and slave (bytes)
system.membus.pkt_size_system.l2.mem_side::total    875919040                       # Cumulative packet size per connected master and slave (bytes)
system.membus.pkt_size::total               875919040                       # Cumulative packet size per connected master and slave (bytes)
system.membus.snoops                                0                       # Total snoops (count)
system.membus.snoop_fanout::samples          27698593                       # Request fanout histogram
system.membus.snoop_fanout::mean                    0                       # Request fanout histogram
system.membus.snoop_fanout::stdev                   0                       # Request fanout histogram
system.membus.snoop_fanout::underflows              0      0.00%      0.00% # Request fanout histogram
system.membus.snoop_fanout::0                27698593    100.00%    100.00% # Request fanout histogram
system.membus.snoop_fanout::1                       0      0.00%    100.00% # Request fanout histogram
system.membus.snoop_fanout::overflows               0      0.00%    100.00% # Request fanout histogram
system.membus.snoop_fanout::min_value               0                       # Request fanout histogram
system.membus.snoop_fanout::max_value               0                       # Request fanout histogram
system.membus.snoop_fanout::total            27698593                       # Request fanout histogram
system.membus.reqLayer2.occupancy         54711364500                       # Layer occupancy (ticks)
system.membus.reqLayer2.utilization               2.7                       # Layer utilization (%)
system.membus.respLayer1.occupancy        45281060250                       # Layer occupancy (ticks)
system.membus.respLayer1.utilization              2.2                       # Layer utilization (%)
system.tol2bus.snoop_filter.tot_requests     27730373                       # Total number of requests made to the snoop filter.
system.tol2bus.snoop_filter.hit_single_requests     13864271                       # Number of requests hitting in the snoop filter with a single holder of the requested data.
system.tol2bus.snoop_filter.hit_multi_requests            1                       # Number of requests hitting in the snoop filter with multiple (>1) holders of the requested data.
system.tol2bus.snoop_filter.tot_snoops            868                       # Total number of snoops made to the snoop filter.
system.tol2bus.snoop_filter.hit_single_snoops          868                       # Number of snoops hitting in the snoop filter with a single holder of the requested data.
system.tol2bus.snoop_filter.hit_multi_snoops            0                       # Number of snoops hitting in the snoop filter with multiple (>1) holders of the requested data.
system.tol2bus.trans_dist::ReadResp            465873                       # Transaction distribution
system.tol2bus.trans_dist::WritebackDirty     27012776                       # Transaction distribution
system.tol2bus.trans_dist::WritebackClean           58                       # Transaction distribution
system.tol2bus.trans_dist::CleanEvict          684792                       # Transaction distribution
system.tol2bus.trans_dist::ReadExReq         13400229                       # Transaction distribution
system.tol2bus.trans_dist::ReadExResp        13400229                       # Transaction distribution
system.tol2bus.trans_dist::ReadCleanReq           865                       # Transaction distribution
system.tol2bus.trans_dist::ReadSharedReq       465008                       # Transaction distribution
system.tol2bus.pkt_count_system.cpu.icache.mem_side::system.l2.cpu_side         1788                       # Packet count per connected master and slave (bytes)
system.tol2bus.pkt_count_system.cpu.dcache.mem_side::system.l2.cpu_side     41594686                       # Packet count per connected master and slave (bytes)
system.tol2bus.pkt_count::total              41596474                       # Packet count per connected master and slave (bytes)
system.tol2bus.pkt_size_system.cpu.icache.mem_side::system.l2.cpu_side        29536                       # Cumulative packet size per connected master and slave (bytes)
system.tol2bus.pkt_size_system.cpu.dcache.mem_side::system.l2.cpu_side    875892128                       # Cumulative packet size per connected master and slave (bytes)
system.tol2bus.pkt_size::total              875921664                       # Cumulative packet size per connected master and slave (bytes)
system.tol2bus.snoops                        13833356                       # Total snoops (count)
system.tol2bus.snoop_fanout::samples         27699458                       # Request fanout histogram
system.tol2bus.snoop_fanout::mean            0.000031                       # Request fanout histogram
system.tol2bus.snoop_fanout::stdev           0.005601                       # Request fanout histogram
system.tol2bus.snoop_fanout::underflows             0      0.00%      0.00% # Request fanout histogram
system.tol2bus.snoop_fanout::0               27698589    100.00%    100.00% # Request fanout histogram
system.tol2bus.snoop_fanout::1                    869      0.00%    100.00% # Request fanout histogram
system.tol2bus.snoop_fanout::2                      0      0.00%    100.00% # Request fanout histogram
system.tol2bus.snoop_fanout::3                      0      0.00%    100.00% # Request fanout histogram
system.tol2bus.snoop_fanout::4                      0      0.00%    100.00% # Request fanout histogram
system.tol2bus.snoop_fanout::overflows              0      0.00%    100.00% # Request fanout histogram
system.tol2bus.snoop_fanout::min_value              0                       # Request fanout histogram
system.tol2bus.snoop_fanout::max_value              1                       # Request fanout histogram
system.tol2bus.snoop_fanout::total           27699458                       # Request fanout histogram
system.tol2bus.reqLayer0.occupancy        20618411500                       # Layer occupancy (ticks)
system.tol2bus.reqLayer0.utilization              1.0                       # Layer utilization (%)
system.tol2bus.respLayer0.occupancy            865000                       # Layer occupancy (ticks)
system.tol2bus.respLayer0.utilization             0.0                       # Layer utilization (%)
system.tol2bus.respLayer1.occupancy       13865237000                       # Layer occupancy (ticks)
system.tol2bus.respLayer1.utilization             0.7                       # Layer utilization (%)

---------- End Simulation Statistics   ----------
