
---------- Begin Simulation Statistics ----------
sim_seconds                                  1.648355                       # Number of seconds simulated
sim_ticks                                1648354932500                       # Number of ticks simulated
final_tick                               1648354932500                       # Number of ticks from beginning of simulation (restored from checkpoints and never reset)
sim_freq                                 1000000000000                       # Frequency of simulated ticks
host_inst_rate                                 213065                       # Simulator instruction rate (inst/s)
host_op_rate                                   350861                       # Simulator op (including micro ops) rate (op/s)
host_tick_rate                              702412447                       # Simulator tick rate (ticks/s)
host_mem_usage                                 834040                       # Number of bytes of host memory used
host_seconds                                  2346.71                       # Real time elapsed on the host
sim_insts                                   500000000                       # Number of instructions simulated
sim_ops                                     823366688                       # Number of ops (including micro ops) simulated
system.voltage_domain.voltage                       1                       # Voltage in Volts
system.clk_domain.clock                          1000                       # Clock period in ticks
system.mem_ctrls.bytes_read::cpu.inst          276032                       # Number of bytes read from this memory
system.mem_ctrls.bytes_read::cpu.data       537454464                       # Number of bytes read from this memory
system.mem_ctrls.bytes_read::total          537730496                       # Number of bytes read from this memory
system.mem_ctrls.bytes_inst_read::cpu.inst       276032                       # Number of instructions bytes read from this memory
system.mem_ctrls.bytes_inst_read::total        276032                       # Number of instructions bytes read from this memory
system.mem_ctrls.bytes_written::writebacks    534342208                       # Number of bytes written to this memory
system.mem_ctrls.bytes_written::total       534342208                       # Number of bytes written to this memory
system.mem_ctrls.num_reads::cpu.inst             4313                       # Number of read requests responded to by this memory
system.mem_ctrls.num_reads::cpu.data          8397726                       # Number of read requests responded to by this memory
system.mem_ctrls.num_reads::total             8402039                       # Number of read requests responded to by this memory
system.mem_ctrls.num_writes::writebacks       8349097                       # Number of write requests responded to by this memory
system.mem_ctrls.num_writes::total            8349097                       # Number of write requests responded to by this memory
system.mem_ctrls.bw_read::cpu.inst             167459                       # Total read bandwidth from this memory (bytes/s)
system.mem_ctrls.bw_read::cpu.data          326055059                       # Total read bandwidth from this memory (bytes/s)
system.mem_ctrls.bw_read::total             326222518                       # Total read bandwidth from this memory (bytes/s)
system.mem_ctrls.bw_inst_read::cpu.inst        167459                       # Instruction read bandwidth from this memory (bytes/s)
system.mem_ctrls.bw_inst_read::total           167459                       # Instruction read bandwidth from this memory (bytes/s)
system.mem_ctrls.bw_write::writebacks       324166960                       # Write bandwidth from this memory (bytes/s)
system.mem_ctrls.bw_write::total            324166960                       # Write bandwidth from this memory (bytes/s)
system.mem_ctrls.bw_total::writebacks       324166960                       # Total bandwidth to/from this memory (bytes/s)
system.mem_ctrls.bw_total::cpu.inst            167459                       # Total bandwidth to/from this memory (bytes/s)
system.mem_ctrls.bw_total::cpu.data         326055059                       # Total bandwidth to/from this memory (bytes/s)
system.mem_ctrls.bw_total::total            650389478                       # Total bandwidth to/from this memory (bytes/s)
system.mem_ctrls.readReqs                     8402039                       # Number of read requests accepted
system.mem_ctrls.writeReqs                    8349097                       # Number of write requests accepted
system.mem_ctrls.readBursts                   8402039                       # Number of DRAM read bursts, including those serviced by the write queue
system.mem_ctrls.writeBursts                  8349097                       # Number of DRAM write bursts, including those merged in the write queue
system.mem_ctrls.bytesReadDRAM              537646336                       # Total number of bytes read from DRAM
system.mem_ctrls.bytesReadWrQ                   84160                       # Total number of bytes read from write queue
system.mem_ctrls.bytesWritten               534324864                       # Total number of bytes written to DRAM
system.mem_ctrls.bytesReadSys               537730496                       # Total read bytes from the system interface side
system.mem_ctrls.bytesWrittenSys            534342208                       # Total written bytes from the system interface side
system.mem_ctrls.servicedByWrQ                   1315                       # Number of DRAM read bursts serviced by the write queue
system.mem_ctrls.mergedWrBursts                   253                       # Number of DRAM write bursts merged with an existing one
system.mem_ctrls.neitherReadNorWriteReqs        35782                       # Number of requests that are neither read nor write
system.mem_ctrls.perBankRdBursts::0            523550                       # Per bank write bursts
system.mem_ctrls.perBankRdBursts::1            523343                       # Per bank write bursts
system.mem_ctrls.perBankRdBursts::2            523711                       # Per bank write bursts
system.mem_ctrls.perBankRdBursts::3            525661                       # Per bank write bursts
system.mem_ctrls.perBankRdBursts::4            536254                       # Per bank write bursts
system.mem_ctrls.perBankRdBursts::5            524338                       # Per bank write bursts
system.mem_ctrls.perBankRdBursts::6            523875                       # Per bank write bursts
system.mem_ctrls.perBankRdBursts::7            524229                       # Per bank write bursts
system.mem_ctrls.perBankRdBursts::8            523284                       # Per bank write bursts
system.mem_ctrls.perBankRdBursts::9            523880                       # Per bank write bursts
system.mem_ctrls.perBankRdBursts::10           524927                       # Per bank write bursts
system.mem_ctrls.perBankRdBursts::11           526290                       # Per bank write bursts
system.mem_ctrls.perBankRdBursts::12           524746                       # Per bank write bursts
system.mem_ctrls.perBankRdBursts::13           524407                       # Per bank write bursts
system.mem_ctrls.perBankRdBursts::14           524056                       # Per bank write bursts
system.mem_ctrls.perBankRdBursts::15           524173                       # Per bank write bursts
system.mem_ctrls.perBankWrBursts::0            521594                       # Per bank write bursts
system.mem_ctrls.perBankWrBursts::1            521400                       # Per bank write bursts
system.mem_ctrls.perBankWrBursts::2            521653                       # Per bank write bursts
system.mem_ctrls.perBankWrBursts::3            522922                       # Per bank write bursts
system.mem_ctrls.perBankWrBursts::4            522267                       # Per bank write bursts
system.mem_ctrls.perBankWrBursts::5            521985                       # Per bank write bursts
system.mem_ctrls.perBankWrBursts::6            521532                       # Per bank write bursts
system.mem_ctrls.perBankWrBursts::7            521752                       # Per bank write bursts
system.mem_ctrls.perBankWrBursts::8            521337                       # Per bank write bursts
system.mem_ctrls.perBankWrBursts::9            521520                       # Per bank write bursts
system.mem_ctrls.perBankWrBursts::10           521644                       # Per bank write bursts
system.mem_ctrls.perBankWrBursts::11           521864                       # Per bank write bursts
system.mem_ctrls.perBankWrBursts::12           521922                       # Per bank write bursts
system.mem_ctrls.perBankWrBursts::13           521960                       # Per bank write bursts
system.mem_ctrls.perBankWrBursts::14           521767                       # Per bank write bursts
system.mem_ctrls.perBankWrBursts::15           521707                       # Per bank write bursts
system.mem_ctrls.numRdRetry                         0                       # Number of times read queue was full causing retry
system.mem_ctrls.numWrRetry                         0                       # Number of times write queue was full causing retry
system.mem_ctrls.totGap                  1648342002500                       # Total gap between requests
system.mem_ctrls.readPktSize::0                     0                       # Read request sizes (log2)
system.mem_ctrls.readPktSize::1                     0                       # Read request sizes (log2)
system.mem_ctrls.readPktSize::2                     0                       # Read request sizes (log2)
system.mem_ctrls.readPktSize::3                     0                       # Read request sizes (log2)
system.mem_ctrls.readPktSize::4                     0                       # Read request sizes (log2)
system.mem_ctrls.readPktSize::5                     0                       # Read request sizes (log2)
system.mem_ctrls.readPktSize::6               8402039                       # Read request sizes (log2)
system.mem_ctrls.writePktSize::0                    0                       # Write request sizes (log2)
system.mem_ctrls.writePktSize::1                    0                       # Write request sizes (log2)
system.mem_ctrls.writePktSize::2                    0                       # Write request sizes (log2)
system.mem_ctrls.writePktSize::3                    0                       # Write request sizes (log2)
system.mem_ctrls.writePktSize::4                    0                       # Write request sizes (log2)
system.mem_ctrls.writePktSize::5                    0                       # Write request sizes (log2)
system.mem_ctrls.writePktSize::6              8349097                       # Write request sizes (log2)
system.mem_ctrls.rdQLenPdf::0                 8400723                       # What read queue length does an incoming req see
system.mem_ctrls.rdQLenPdf::1                       1                       # What read queue length does an incoming req see
system.mem_ctrls.rdQLenPdf::2                       0                       # What read queue length does an incoming req see
system.mem_ctrls.rdQLenPdf::3                       0                       # What read queue length does an incoming req see
system.mem_ctrls.rdQLenPdf::4                       0                       # What read queue length does an incoming req see
system.mem_ctrls.rdQLenPdf::5                       0                       # What read queue length does an incoming req see
system.mem_ctrls.rdQLenPdf::6                       0                       # What read queue length does an incoming req see
system.mem_ctrls.rdQLenPdf::7                       0                       # What read queue length does an incoming req see
system.mem_ctrls.rdQLenPdf::8                       0                       # What read queue length does an incoming req see
system.mem_ctrls.rdQLenPdf::9                       0                       # What read queue length does an incoming req see
system.mem_ctrls.rdQLenPdf::10                      0                       # What read queue length does an incoming req see
system.mem_ctrls.rdQLenPdf::11                      0                       # What read queue length does an incoming req see
system.mem_ctrls.rdQLenPdf::12                      0                       # What read queue length does an incoming req see
system.mem_ctrls.rdQLenPdf::13                      0                       # What read queue length does an incoming req see
system.mem_ctrls.rdQLenPdf::14                      0                       # What read queue length does an incoming req see
system.mem_ctrls.rdQLenPdf::15                      0                       # What read queue length does an incoming req see
system.mem_ctrls.rdQLenPdf::16                      0                       # What read queue length does an incoming req see
system.mem_ctrls.rdQLenPdf::17                      0                       # What read queue length does an incoming req see
system.mem_ctrls.rdQLenPdf::18                      0                       # What read queue length does an incoming req see
system.mem_ctrls.rdQLenPdf::19                      0                       # What read queue length does an incoming req see
system.mem_ctrls.rdQLenPdf::20                      0                       # What read queue length does an incoming req see
system.mem_ctrls.rdQLenPdf::21                      0                       # What read queue length does an incoming req see
system.mem_ctrls.rdQLenPdf::22                      0                       # What read queue length does an incoming req see
system.mem_ctrls.rdQLenPdf::23                      0                       # What read queue length does an incoming req see
system.mem_ctrls.rdQLenPdf::24                      0                       # What read queue length does an incoming req see
system.mem_ctrls.rdQLenPdf::25                      0                       # What read queue length does an incoming req see
system.mem_ctrls.rdQLenPdf::26                      0                       # What read queue length does an incoming req see
system.mem_ctrls.rdQLenPdf::27                      0                       # What read queue length does an incoming req see
system.mem_ctrls.rdQLenPdf::28                      0                       # What read queue length does an incoming req see
system.mem_ctrls.rdQLenPdf::29                      0                       # What read queue length does an incoming req see
system.mem_ctrls.rdQLenPdf::30                      0                       # What read queue length does an incoming req see
system.mem_ctrls.rdQLenPdf::31                      0                       # What read queue length does an incoming req see
system.mem_ctrls.wrQLenPdf::0                       1                       # What write queue length does an incoming req see
system.mem_ctrls.wrQLenPdf::1                       1                       # What write queue length does an incoming req see
system.mem_ctrls.wrQLenPdf::2                       1                       # What write queue length does an incoming req see
system.mem_ctrls.wrQLenPdf::3                       1                       # What write queue length does an incoming req see
system.mem_ctrls.wrQLenPdf::4                       1                       # What write queue length does an incoming req see
system.mem_ctrls.wrQLenPdf::5                       1                       # What write queue length does an incoming req see
system.mem_ctrls.wrQLenPdf::6                       1                       # What write queue length does an incoming req see
system.mem_ctrls.wrQLenPdf::7                       1                       # What write queue length does an incoming req see
system.mem_ctrls.wrQLenPdf::8                       1                       # What write queue length does an incoming req see
system.mem_ctrls.wrQLenPdf::9                       1                       # What write queue length does an incoming req see
system.mem_ctrls.wrQLenPdf::10                      1                       # What write queue length does an incoming req see
system.mem_ctrls.wrQLenPdf::11                      1                       # What write queue length does an incoming req see
system.mem_ctrls.wrQLenPdf::12                      1                       # What write queue length does an incoming req see
system.mem_ctrls.wrQLenPdf::13                      1                       # What write queue length does an incoming req see
system.mem_ctrls.wrQLenPdf::14                      1                       # What write queue length does an incoming req see
system.mem_ctrls.wrQLenPdf::15                   6789                       # What write queue length does an incoming req see
system.mem_ctrls.wrQLenPdf::16                   6801                       # What write queue length does an incoming req see
system.mem_ctrls.wrQLenPdf::17                 518754                       # What write queue length does an incoming req see
system.mem_ctrls.wrQLenPdf::18                 520872                       # What write queue length does an incoming req see
system.mem_ctrls.wrQLenPdf::19                 520869                       # What write queue length does an incoming req see
system.mem_ctrls.wrQLenPdf::20                 520869                       # What write queue length does an incoming req see
system.mem_ctrls.wrQLenPdf::21                 520869                       # What write queue length does an incoming req see
system.mem_ctrls.wrQLenPdf::22                 520867                       # What write queue length does an incoming req see
system.mem_ctrls.wrQLenPdf::23                 520867                       # What write queue length does an incoming req see
system.mem_ctrls.wrQLenPdf::24                 520872                       # What write queue length does an incoming req see
system.mem_ctrls.wrQLenPdf::25                 524195                       # What write queue length does an incoming req see
system.mem_ctrls.wrQLenPdf::26                 520866                       # What write queue length does an incoming req see
system.mem_ctrls.wrQLenPdf::27                 520878                       # What write queue length does an incoming req see
system.mem_ctrls.wrQLenPdf::28                 520997                       # What write queue length does an incoming req see
system.mem_ctrls.wrQLenPdf::29                 520867                       # What write queue length does an incoming req see
system.mem_ctrls.wrQLenPdf::30                 520867                       # What write queue length does an incoming req see
system.mem_ctrls.wrQLenPdf::31                 520864                       # What write queue length does an incoming req see
system.mem_ctrls.wrQLenPdf::32                 520864                       # What write queue length does an incoming req see
system.mem_ctrls.wrQLenPdf::33                      2                       # What write queue length does an incoming req see
system.mem_ctrls.wrQLenPdf::34                      0                       # What write queue length does an incoming req see
system.mem_ctrls.wrQLenPdf::35                      0                       # What write queue length does an incoming req see
system.mem_ctrls.wrQLenPdf::36                      0                       # What write queue length does an incoming req see
system.mem_ctrls.wrQLenPdf::37                      0                       # What write queue length does an incoming req see
system.mem_ctrls.wrQLenPdf::38                      0                       # What write queue length does an incoming req see
system.mem_ctrls.wrQLenPdf::39                      0                       # What write queue length does an incoming req see
system.mem_ctrls.wrQLenPdf::40                      0                       # What write queue length does an incoming req see
system.mem_ctrls.wrQLenPdf::41                      0                       # What write queue length does an incoming req see
system.mem_ctrls.wrQLenPdf::42                      0                       # What write queue length does an incoming req see
system.mem_ctrls.wrQLenPdf::43                      0                       # What write queue length does an incoming req see
system.mem_ctrls.wrQLenPdf::44                      0                       # What write queue length does an incoming req see
system.mem_ctrls.wrQLenPdf::45                      0                       # What write queue length does an incoming req see
system.mem_ctrls.wrQLenPdf::46                      0                       # What write queue length does an incoming req see
system.mem_ctrls.wrQLenPdf::47                      0                       # What write queue length does an incoming req see
system.mem_ctrls.wrQLenPdf::48                      0                       # What write queue length does an incoming req see
system.mem_ctrls.wrQLenPdf::49                      0                       # What write queue length does an incoming req see
system.mem_ctrls.wrQLenPdf::50                      0                       # What write queue length does an incoming req see
system.mem_ctrls.wrQLenPdf::51                      0                       # What write queue length does an incoming req see
system.mem_ctrls.wrQLenPdf::52                      0                       # What write queue length does an incoming req see
system.mem_ctrls.wrQLenPdf::53                      0                       # What write queue length does an incoming req see
system.mem_ctrls.wrQLenPdf::54                      0                       # What write queue length does an incoming req see
system.mem_ctrls.wrQLenPdf::55                      0                       # What write queue length does an incoming req see
system.mem_ctrls.wrQLenPdf::56                      0                       # What write queue length does an incoming req see
system.mem_ctrls.wrQLenPdf::57                      0                       # What write queue length does an incoming req see
system.mem_ctrls.wrQLenPdf::58                      0                       # What write queue length does an incoming req see
system.mem_ctrls.wrQLenPdf::59                      0                       # What write queue length does an incoming req see
system.mem_ctrls.wrQLenPdf::60                      0                       # What write queue length does an incoming req see
system.mem_ctrls.wrQLenPdf::61                      0                       # What write queue length does an incoming req see
system.mem_ctrls.wrQLenPdf::62                      0                       # What write queue length does an incoming req see
system.mem_ctrls.wrQLenPdf::63                      0                       # What write queue length does an incoming req see
system.mem_ctrls.bytesPerActivate::samples      1426823                       # Bytes accessed per row activation
system.mem_ctrls.bytesPerActivate::mean    751.299355                       # Bytes accessed per row activation
system.mem_ctrls.bytesPerActivate::gmean   550.218396                       # Bytes accessed per row activation
system.mem_ctrls.bytesPerActivate::stdev   378.482856                       # Bytes accessed per row activation
system.mem_ctrls.bytesPerActivate::0-127       205707     14.42%     14.42% # Bytes accessed per row activation
system.mem_ctrls.bytesPerActivate::128-255        59569      4.17%     18.59% # Bytes accessed per row activation
system.mem_ctrls.bytesPerActivate::256-383        62364      4.37%     22.96% # Bytes accessed per row activation
system.mem_ctrls.bytesPerActivate::384-511        55800      3.91%     26.87% # Bytes accessed per row activation
system.mem_ctrls.bytesPerActivate::512-639        44186      3.10%     29.97% # Bytes accessed per row activation
system.mem_ctrls.bytesPerActivate::640-767        68830      4.82%     34.79% # Bytes accessed per row activation
system.mem_ctrls.bytesPerActivate::768-895        43474      3.05%     37.84% # Bytes accessed per row activation
system.mem_ctrls.bytesPerActivate::896-1023        55272      3.87%     41.72% # Bytes accessed per row activation
system.mem_ctrls.bytesPerActivate::1024-1151       831621     58.28%    100.00% # Bytes accessed per row activation
system.mem_ctrls.bytesPerActivate::total      1426823                       # Bytes accessed per row activation
system.mem_ctrls.rdPerTurnAround::samples       520864                       # Reads before turning the bus around for writes
system.mem_ctrls.rdPerTurnAround::mean      16.128433                       # Reads before turning the bus around for writes
system.mem_ctrls.rdPerTurnAround::gmean     16.075138                       # Reads before turning the bus around for writes
system.mem_ctrls.rdPerTurnAround::stdev     10.488657                       # Reads before turning the bus around for writes
system.mem_ctrls.rdPerTurnAround::0-255        520858    100.00%    100.00% # Reads before turning the bus around for writes
system.mem_ctrls.rdPerTurnAround::256-511            1      0.00%    100.00% # Reads before turning the bus around for writes
system.mem_ctrls.rdPerTurnAround::1024-1279            1      0.00%    100.00% # Reads before turning the bus around for writes
system.mem_ctrls.rdPerTurnAround::1792-2047            1      0.00%    100.00% # Reads before turning the bus around for writes
system.mem_ctrls.rdPerTurnAround::2304-2559            1      0.00%    100.00% # Reads before turning the bus around for writes
system.mem_ctrls.rdPerTurnAround::3584-3839            1      0.00%    100.00% # Reads before turning the bus around for writes
system.mem_ctrls.rdPerTurnAround::5376-5631            1      0.00%    100.00% # Reads before turning the bus around for writes
system.mem_ctrls.rdPerTurnAround::total        520864                       # Reads before turning the bus around for writes
system.mem_ctrls.wrPerTurnAround::samples       520864                       # Writes before turning the bus around for reads
system.mem_ctrls.wrPerTurnAround::mean      16.028802                       # Writes before turning the bus around for reads
system.mem_ctrls.wrPerTurnAround::gmean     16.026953                       # Writes before turning the bus around for reads
system.mem_ctrls.wrPerTurnAround::stdev      0.254739                       # Writes before turning the bus around for reads
system.mem_ctrls.wrPerTurnAround::16           514064     98.69%     98.69% # Writes before turning the bus around for reads
system.mem_ctrls.wrPerTurnAround::17               10      0.00%     98.70% # Writes before turning the bus around for reads
system.mem_ctrls.wrPerTurnAround::18             5379      1.03%     99.73% # Writes before turning the bus around for reads
system.mem_ctrls.wrPerTurnAround::19             1410      0.27%    100.00% # Writes before turning the bus around for reads
system.mem_ctrls.wrPerTurnAround::20                1      0.00%    100.00% # Writes before turning the bus around for reads
system.mem_ctrls.wrPerTurnAround::total        520864                       # Writes before turning the bus around for reads
system.mem_ctrls.totQLat                  88632827000                       # Total ticks spent queuing
system.mem_ctrls.totMemAccLat            246146402000                       # Total ticks spent from burst creation until serviced by the DRAM
system.mem_ctrls.totBusLat                42003620000                       # Total ticks spent in databus transfers
system.mem_ctrls.avgQLat                     10550.62                       # Average queueing delay per DRAM burst
system.mem_ctrls.avgBusLat                    5000.00                       # Average bus latency per DRAM burst
system.mem_ctrls.avgMemAccLat                29300.62                       # Average memory access latency per DRAM burst
system.mem_ctrls.avgRdBW                       326.17                       # Average DRAM read bandwidth in MiByte/s
system.mem_ctrls.avgWrBW                       324.16                       # Average achieved write bandwidth in MiByte/s
system.mem_ctrls.avgRdBWSys                    326.22                       # Average system read bandwidth in MiByte/s
system.mem_ctrls.avgWrBWSys                    324.17                       # Average system write bandwidth in MiByte/s
system.mem_ctrls.peakBW                      12800.00                       # Theoretical peak bandwidth in MiByte/s
system.mem_ctrls.busUtil                         5.08                       # Data bus utilization in percentage
system.mem_ctrls.busUtilRead                     2.55                       # Data bus utilization in percentage for reads
system.mem_ctrls.busUtilWrite                    2.53                       # Data bus utilization in percentage for writes
system.mem_ctrls.avgRdQLen                       1.00                       # Average read queue length when enqueuing
system.mem_ctrls.avgWrQLen                      25.23                       # Average write queue length when enqueuing
system.mem_ctrls.readRowHits                  7623071                       # Number of row buffer hits during reads
system.mem_ctrls.writeRowHits                 7699656                       # Number of row buffer hits during writes
system.mem_ctrls.readRowHitRate                 90.74                       # Row buffer hit rate for reads
system.mem_ctrls.writeRowHitRate                92.22                       # Row buffer hit rate for writes
system.mem_ctrls.avgGap                      98401.80                       # Average gap between requests
system.mem_ctrls.pageHitRate                    91.48                       # Row buffer hit rate, read and write combined
system.mem_ctrls_0.actEnergy               5419688400                       # Energy for activate commands per rank (pJ)
system.mem_ctrls_0.preEnergy               2957171250                       # Energy for precharge commands per rank (pJ)
system.mem_ctrls_0.readEnergy             32798695800                       # Energy for read commands per rank (pJ)
system.mem_ctrls_0.writeEnergy            27054680400                       # Energy for write commands per rank (pJ)
system.mem_ctrls_0.refreshEnergy         107662152000                       # Energy for refresh commands per rank (pJ)
system.mem_ctrls_0.actBackEnergy         417099974940                       # Energy for active background per rank (pJ)
system.mem_ctrls_0.preBackEnergy         623132451750                       # Energy for precharge background per rank (pJ)
system.mem_ctrls_0.totalEnergy           1216124814540                       # Total energy per rank (pJ)
system.mem_ctrls_0.averagePower            737.783407                       # Core power per rank (mW)
system.mem_ctrls_0.memoryStateTime::IDLE 1029651294250                       # Time in different power states
system.mem_ctrls_0.memoryStateTime::REF   55042000000                       # Time in different power states
system.mem_ctrls_0.memoryStateTime::PRE_PDN            0                       # Time in different power states
system.mem_ctrls_0.memoryStateTime::ACT  563656090750                       # Time in different power states
system.mem_ctrls_0.memoryStateTime::ACT_PDN            0                       # Time in different power states
system.mem_ctrls_1.actEnergy               5367093480                       # Energy for activate commands per rank (pJ)
system.mem_ctrls_1.preEnergy               2928473625                       # Energy for precharge commands per rank (pJ)
system.mem_ctrls_1.readEnergy             32726951400                       # Energy for read commands per rank (pJ)
system.mem_ctrls_1.writeEnergy            27045712080                       # Energy for write commands per rank (pJ)
system.mem_ctrls_1.refreshEnergy         107662152000                       # Energy for refresh commands per rank (pJ)
system.mem_ctrls_1.actBackEnergy         404890539885                       # Energy for active background per rank (pJ)
system.mem_ctrls_1.preBackEnergy         633842490750                       # Energy for precharge background per rank (pJ)
system.mem_ctrls_1.totalEnergy           1214463413220                       # Total energy per rank (pJ)
system.mem_ctrls_1.averagePower            736.775482                       # Core power per rank (mW)
system.mem_ctrls_1.memoryStateTime::IDLE 1047544467750                       # Time in different power states
system.mem_ctrls_1.memoryStateTime::REF   55042000000                       # Time in different power states
system.mem_ctrls_1.memoryStateTime::PRE_PDN            0                       # Time in different power states
system.mem_ctrls_1.memoryStateTime::ACT  545762931000                       # Time in different power states
system.mem_ctrls_1.memoryStateTime::ACT_PDN            0                       # Time in different power states
system.cpu_voltage_domain.voltage                   1                       # Voltage in Volts
system.cpu_clk_domain.clock                       500                       # Clock period in ticks
system.cpu.apic_clk_domain.clock                 8000                       # Clock period in ticks
system.cpu.workload.num_syscalls                  196                       # Number of system calls
system.cpu.numCycles                       3296709865                       # number of cpu cycles simulated
system.cpu.numWorkItemsStarted                      0                       # number of work items this cpu started
system.cpu.numWorkItemsCompleted                    0                       # number of work items this cpu completed
system.cpu.committedInsts                   500000000                       # Number of instructions committed
system.cpu.committedOps                     823366688                       # Number of ops (including micro ops) committed
system.cpu.num_int_alu_accesses             821415780                       # Number of integer alu accesses
system.cpu.num_fp_alu_accesses               66619254                       # Number of float alu accesses
system.cpu.num_func_calls                     5652773                       # number of times a function call or return occured
system.cpu.num_conditional_control_insts     57208851                       # number of instructions that are conditional controls
system.cpu.num_int_insts                    821415780                       # number of integer instructions
system.cpu.num_fp_insts                      66619254                       # number of float instructions
system.cpu.num_int_register_reads          1637209921                       # number of times the integer registers were read
system.cpu.num_int_register_writes          639871071                       # number of times the integer registers were written
system.cpu.num_fp_register_reads             66766844                       # number of times the floating registers were read
system.cpu.num_fp_register_writes              208042                       # number of times the floating registers were written
system.cpu.num_cc_register_reads            319714234                       # number of times the CC registers were read
system.cpu.num_cc_register_writes           287984020                       # number of times the CC registers were written
system.cpu.num_mem_refs                     271673944                       # number of memory refs
system.cpu.num_load_insts                   157213786                       # Number of load instructions
system.cpu.num_store_insts                  114460158                       # Number of store instructions
system.cpu.num_idle_cycles                          0                       # Number of idle cycles
system.cpu.num_busy_cycles                 3296709865                       # Number of busy cycles
system.cpu.not_idle_fraction                        1                       # Percentage of non-idle cycles
system.cpu.idle_fraction                            0                       # Percentage of idle cycles
system.cpu.Branches                          69678398                       # Number of branches fetched
system.cpu.op_class::No_OpClass                202233      0.02%      0.02% # Class of executed instruction
system.cpu.op_class::IntAlu                 550028809     66.80%     66.83% # Class of executed instruction
system.cpu.op_class::IntMult                   125092      0.02%     66.84% # Class of executed instruction
system.cpu.op_class::IntDiv                   1153479      0.14%     66.98% # Class of executed instruction
system.cpu.op_class::FloatAdd                  183131      0.02%     67.00% # Class of executed instruction
system.cpu.op_class::FloatCmp                       0      0.00%     67.00% # Class of executed instruction
system.cpu.op_class::FloatCvt                       0      0.00%     67.00% # Class of executed instruction
system.cpu.op_class::FloatMult                      0      0.00%     67.00% # Class of executed instruction
system.cpu.op_class::FloatDiv                       0      0.00%     67.00% # Class of executed instruction
system.cpu.op_class::FloatSqrt                      0      0.00%     67.00% # Class of executed instruction
system.cpu.op_class::SimdAdd                        0      0.00%     67.00% # Class of executed instruction
system.cpu.op_class::SimdAddAcc                     0      0.00%     67.00% # Class of executed instruction
system.cpu.op_class::SimdAlu                        0      0.00%     67.00% # Class of executed instruction
system.cpu.op_class::SimdCmp                        0      0.00%     67.00% # Class of executed instruction
system.cpu.op_class::SimdCvt                        0      0.00%     67.00% # Class of executed instruction
system.cpu.op_class::SimdMisc                       0      0.00%     67.00% # Class of executed instruction
system.cpu.op_class::SimdMult                       0      0.00%     67.00% # Class of executed instruction
system.cpu.op_class::SimdMultAcc                    0      0.00%     67.00% # Class of executed instruction
system.cpu.op_class::SimdShift                      0      0.00%     67.00% # Class of executed instruction
system.cpu.op_class::SimdShiftAcc                   0      0.00%     67.00% # Class of executed instruction
system.cpu.op_class::SimdSqrt                       0      0.00%     67.00% # Class of executed instruction
system.cpu.op_class::SimdFloatAdd                   0      0.00%     67.00% # Class of executed instruction
system.cpu.op_class::SimdFloatAlu                   0      0.00%     67.00% # Class of executed instruction
system.cpu.op_class::SimdFloatCmp                   0      0.00%     67.00% # Class of executed instruction
system.cpu.op_class::SimdFloatCvt                   0      0.00%     67.00% # Class of executed instruction
system.cpu.op_class::SimdFloatDiv                   0      0.00%     67.00% # Class of executed instruction
system.cpu.op_class::SimdFloatMisc                  0      0.00%     67.00% # Class of executed instruction
system.cpu.op_class::SimdFloatMult                  0      0.00%     67.00% # Class of executed instruction
system.cpu.op_class::SimdFloatMultAcc               0      0.00%     67.00% # Class of executed instruction
system.cpu.op_class::SimdFloatSqrt                  0      0.00%     67.00% # Class of executed instruction
system.cpu.op_class::MemRead                157213786     19.09%     86.10% # Class of executed instruction
system.cpu.op_class::MemWrite               114460158     13.90%    100.00% # Class of executed instruction
system.cpu.op_class::IprAccess                      0      0.00%    100.00% # Class of executed instruction
system.cpu.op_class::InstPrefetch                   0      0.00%    100.00% # Class of executed instruction
system.cpu.op_class::total                  823366688                       # Class of executed instruction
system.cpu.dcache.tags.replacements           8978156                       # number of replacements
system.cpu.dcache.tags.tagsinuse          1023.494236                       # Cycle average of tags in use
system.cpu.dcache.tags.total_refs           262695367                       # Total number of references to valid blocks.
system.cpu.dcache.tags.sampled_refs           8979180                       # Sample count of references to valid blocks.
system.cpu.dcache.tags.avg_refs             29.256053                       # Average number of references to valid blocks.
system.cpu.dcache.tags.warmup_cycle        7171468500                       # Cycle when the warmup percentage was hit.
system.cpu.dcache.tags.occ_blocks::cpu.data  1023.494236                       # Average occupied blocks per requestor
system.cpu.dcache.tags.occ_percent::cpu.data     0.999506                       # Average percentage of cache occupancy
system.cpu.dcache.tags.occ_percent::total     0.999506                       # Average percentage of cache occupancy
system.cpu.dcache.tags.occ_task_id_blocks::1024         1024                       # Occupied blocks per task id
system.cpu.dcache.tags.age_task_id_blocks_1024::0            1                       # Occupied blocks per task id
system.cpu.dcache.tags.age_task_id_blocks_1024::1           43                       # Occupied blocks per task id
system.cpu.dcache.tags.age_task_id_blocks_1024::2          146                       # Occupied blocks per task id
system.cpu.dcache.tags.age_task_id_blocks_1024::3          525                       # Occupied blocks per task id
system.cpu.dcache.tags.age_task_id_blocks_1024::4          309                       # Occupied blocks per task id
system.cpu.dcache.tags.occ_task_id_percent::1024            1                       # Percentage of cache occupancy per task id
system.cpu.dcache.tags.tag_accesses         280653727                       # Number of tag accesses
system.cpu.dcache.tags.data_accesses        280653727                       # Number of data accesses
system.cpu.dcache.ReadReq_hits::cpu.data    156696192                       # number of ReadReq hits
system.cpu.dcache.ReadReq_hits::total       156696192                       # number of ReadReq hits
system.cpu.dcache.WriteReq_hits::cpu.data    105999175                       # number of WriteReq hits
system.cpu.dcache.WriteReq_hits::total      105999175                       # number of WriteReq hits
system.cpu.dcache.demand_hits::cpu.data     262695367                       # number of demand (read+write) hits
system.cpu.dcache.demand_hits::total        262695367                       # number of demand (read+write) hits
system.cpu.dcache.overall_hits::cpu.data    262695367                       # number of overall hits
system.cpu.dcache.overall_hits::total       262695367                       # number of overall hits
system.cpu.dcache.ReadReq_misses::cpu.data       518186                       # number of ReadReq misses
system.cpu.dcache.ReadReq_misses::total        518186                       # number of ReadReq misses
system.cpu.dcache.WriteReq_misses::cpu.data      8460994                       # number of WriteReq misses
system.cpu.dcache.WriteReq_misses::total      8460994                       # number of WriteReq misses
system.cpu.dcache.demand_misses::cpu.data      8979180                       # number of demand (read+write) misses
system.cpu.dcache.demand_misses::total        8979180                       # number of demand (read+write) misses
system.cpu.dcache.overall_misses::cpu.data      8979180                       # number of overall misses
system.cpu.dcache.overall_misses::total       8979180                       # number of overall misses
system.cpu.dcache.ReadReq_miss_latency::cpu.data  14361682000                       # number of ReadReq miss cycles
system.cpu.dcache.ReadReq_miss_latency::total  14361682000                       # number of ReadReq miss cycles
system.cpu.dcache.WriteReq_miss_latency::cpu.data 678084299500                       # number of WriteReq miss cycles
system.cpu.dcache.WriteReq_miss_latency::total 678084299500                       # number of WriteReq miss cycles
system.cpu.dcache.demand_miss_latency::cpu.data 692445981500                       # number of demand (read+write) miss cycles
system.cpu.dcache.demand_miss_latency::total 692445981500                       # number of demand (read+write) miss cycles
system.cpu.dcache.overall_miss_latency::cpu.data 692445981500                       # number of overall miss cycles
system.cpu.dcache.overall_miss_latency::total 692445981500                       # number of overall miss cycles
system.cpu.dcache.ReadReq_accesses::cpu.data    157214378                       # number of ReadReq accesses(hits+misses)
system.cpu.dcache.ReadReq_accesses::total    157214378                       # number of ReadReq accesses(hits+misses)
system.cpu.dcache.WriteReq_accesses::cpu.data    114460169                       # number of WriteReq accesses(hits+misses)
system.cpu.dcache.WriteReq_accesses::total    114460169                       # number of WriteReq accesses(hits+misses)
system.cpu.dcache.demand_accesses::cpu.data    271674547                       # number of demand (read+write) accesses
system.cpu.dcache.demand_accesses::total    271674547                       # number of demand (read+write) accesses
system.cpu.dcache.overall_accesses::cpu.data    271674547                       # number of overall (read+write) accesses
system.cpu.dcache.overall_accesses::total    271674547                       # number of overall (read+write) accesses
system.cpu.dcache.ReadReq_miss_rate::cpu.data     0.003296                       # miss rate for ReadReq accesses
system.cpu.dcache.ReadReq_miss_rate::total     0.003296                       # miss rate for ReadReq accesses
system.cpu.dcache.WriteReq_miss_rate::cpu.data     0.073921                       # miss rate for WriteReq accesses
system.cpu.dcache.WriteReq_miss_rate::total     0.073921                       # miss rate for WriteReq accesses
system.cpu.dcache.demand_miss_rate::cpu.data     0.033051                       # miss rate for demand accesses
system.cpu.dcache.demand_miss_rate::total     0.033051                       # miss rate for demand accesses
system.cpu.dcache.overall_miss_rate::cpu.data     0.033051                       # miss rate for overall accesses
system.cpu.dcache.overall_miss_rate::total     0.033051                       # miss rate for overall accesses
system.cpu.dcache.ReadReq_avg_miss_latency::cpu.data 27715.302999                       # average ReadReq miss latency
system.cpu.dcache.ReadReq_avg_miss_latency::total 27715.302999                       # average ReadReq miss latency
system.cpu.dcache.WriteReq_avg_miss_latency::cpu.data 80142.392194                       # average WriteReq miss latency
system.cpu.dcache.WriteReq_avg_miss_latency::total 80142.392194                       # average WriteReq miss latency
system.cpu.dcache.demand_avg_miss_latency::cpu.data 77116.839344                       # average overall miss latency
system.cpu.dcache.demand_avg_miss_latency::total 77116.839344                       # average overall miss latency
system.cpu.dcache.overall_avg_miss_latency::cpu.data 77116.839344                       # average overall miss latency
system.cpu.dcache.overall_avg_miss_latency::total 77116.839344                       # average overall miss latency
system.cpu.dcache.blocked_cycles::no_mshrs            0                       # number of cycles access was blocked
system.cpu.dcache.blocked_cycles::no_targets            0                       # number of cycles access was blocked
system.cpu.dcache.blocked::no_mshrs                 0                       # number of cycles access was blocked
system.cpu.dcache.blocked::no_targets               0                       # number of cycles access was blocked
system.cpu.dcache.avg_blocked_cycles::no_mshrs          nan                       # average number of cycles each access was blocked
system.cpu.dcache.avg_blocked_cycles::no_targets          nan                       # average number of cycles each access was blocked
system.cpu.dcache.fast_writes                       0                       # number of fast writes performed
system.cpu.dcache.cache_copies                      0                       # number of cache copies performed
system.cpu.dcache.writebacks::writebacks      8707446                       # number of writebacks
system.cpu.dcache.writebacks::total           8707446                       # number of writebacks
system.cpu.dcache.ReadReq_mshr_misses::cpu.data       518186                       # number of ReadReq MSHR misses
system.cpu.dcache.ReadReq_mshr_misses::total       518186                       # number of ReadReq MSHR misses
system.cpu.dcache.WriteReq_mshr_misses::cpu.data      8460994                       # number of WriteReq MSHR misses
system.cpu.dcache.WriteReq_mshr_misses::total      8460994                       # number of WriteReq MSHR misses
system.cpu.dcache.demand_mshr_misses::cpu.data      8979180                       # number of demand (read+write) MSHR misses
system.cpu.dcache.demand_mshr_misses::total      8979180                       # number of demand (read+write) MSHR misses
system.cpu.dcache.overall_mshr_misses::cpu.data      8979180                       # number of overall MSHR misses
system.cpu.dcache.overall_mshr_misses::total      8979180                       # number of overall MSHR misses
system.cpu.dcache.ReadReq_mshr_miss_latency::cpu.data  13843496000                       # number of ReadReq MSHR miss cycles
system.cpu.dcache.ReadReq_mshr_miss_latency::total  13843496000                       # number of ReadReq MSHR miss cycles
system.cpu.dcache.WriteReq_mshr_miss_latency::cpu.data 669623305500                       # number of WriteReq MSHR miss cycles
system.cpu.dcache.WriteReq_mshr_miss_latency::total 669623305500                       # number of WriteReq MSHR miss cycles
system.cpu.dcache.demand_mshr_miss_latency::cpu.data 683466801500                       # number of demand (read+write) MSHR miss cycles
system.cpu.dcache.demand_mshr_miss_latency::total 683466801500                       # number of demand (read+write) MSHR miss cycles
system.cpu.dcache.overall_mshr_miss_latency::cpu.data 683466801500                       # number of overall MSHR miss cycles
system.cpu.dcache.overall_mshr_miss_latency::total 683466801500                       # number of overall MSHR miss cycles
system.cpu.dcache.ReadReq_mshr_miss_rate::cpu.data     0.003296                       # mshr miss rate for ReadReq accesses
system.cpu.dcache.ReadReq_mshr_miss_rate::total     0.003296                       # mshr miss rate for ReadReq accesses
system.cpu.dcache.WriteReq_mshr_miss_rate::cpu.data     0.073921                       # mshr miss rate for WriteReq accesses
system.cpu.dcache.WriteReq_mshr_miss_rate::total     0.073921                       # mshr miss rate for WriteReq accesses
system.cpu.dcache.demand_mshr_miss_rate::cpu.data     0.033051                       # mshr miss rate for demand accesses
system.cpu.dcache.demand_mshr_miss_rate::total     0.033051                       # mshr miss rate for demand accesses
system.cpu.dcache.overall_mshr_miss_rate::cpu.data     0.033051                       # mshr miss rate for overall accesses
system.cpu.dcache.overall_mshr_miss_rate::total     0.033051                       # mshr miss rate for overall accesses
system.cpu.dcache.ReadReq_avg_mshr_miss_latency::cpu.data 26715.302999                       # average ReadReq mshr miss latency
system.cpu.dcache.ReadReq_avg_mshr_miss_latency::total 26715.302999                       # average ReadReq mshr miss latency
system.cpu.dcache.WriteReq_avg_mshr_miss_latency::cpu.data 79142.392194                       # average WriteReq mshr miss latency
system.cpu.dcache.WriteReq_avg_mshr_miss_latency::total 79142.392194                       # average WriteReq mshr miss latency
system.cpu.dcache.demand_avg_mshr_miss_latency::cpu.data 76116.839344                       # average overall mshr miss latency
system.cpu.dcache.demand_avg_mshr_miss_latency::total 76116.839344                       # average overall mshr miss latency
system.cpu.dcache.overall_avg_mshr_miss_latency::cpu.data 76116.839344                       # average overall mshr miss latency
system.cpu.dcache.overall_avg_mshr_miss_latency::total 76116.839344                       # average overall mshr miss latency
system.cpu.dcache.no_allocate_misses                0                       # Number of misses that were no-allocate
system.cpu.dtb_walker_cache.tags.replacements            0                       # number of replacements
system.cpu.dtb_walker_cache.tags.tagsinuse            0                       # Cycle average of tags in use
system.cpu.dtb_walker_cache.tags.total_refs            0                       # Total number of references to valid blocks.
system.cpu.dtb_walker_cache.tags.sampled_refs            0                       # Sample count of references to valid blocks.
system.cpu.dtb_walker_cache.tags.avg_refs          nan                       # Average number of references to valid blocks.
system.cpu.dtb_walker_cache.tags.warmup_cycle            0                       # Cycle when the warmup percentage was hit.
system.cpu.dtb_walker_cache.tags.tag_accesses            0                       # Number of tag accesses
system.cpu.dtb_walker_cache.tags.data_accesses            0                       # Number of data accesses
system.cpu.dtb_walker_cache.blocked_cycles::no_mshrs            0                       # number of cycles access was blocked
system.cpu.dtb_walker_cache.blocked_cycles::no_targets            0                       # number of cycles access was blocked
system.cpu.dtb_walker_cache.blocked::no_mshrs            0                       # number of cycles access was blocked
system.cpu.dtb_walker_cache.blocked::no_targets            0                       # number of cycles access was blocked
system.cpu.dtb_walker_cache.avg_blocked_cycles::no_mshrs          nan                       # average number of cycles each access was blocked
system.cpu.dtb_walker_cache.avg_blocked_cycles::no_targets          nan                       # average number of cycles each access was blocked
system.cpu.dtb_walker_cache.fast_writes             0                       # number of fast writes performed
system.cpu.dtb_walker_cache.cache_copies            0                       # number of cache copies performed
system.cpu.dtb_walker_cache.no_allocate_misses            0                       # Number of misses that were no-allocate
system.cpu.icache.tags.replacements           1460054                       # number of replacements
system.cpu.icache.tags.tagsinuse           683.458649                       # Cycle average of tags in use
system.cpu.icache.tags.total_refs           673892698                       # Total number of references to valid blocks.
system.cpu.icache.tags.sampled_refs           1460964                       # Sample count of references to valid blocks.
system.cpu.icache.tags.avg_refs            461.265779                       # Average number of references to valid blocks.
system.cpu.icache.tags.warmup_cycle                 0                       # Cycle when the warmup percentage was hit.
system.cpu.icache.tags.occ_blocks::cpu.inst   683.458649                       # Average occupied blocks per requestor
system.cpu.icache.tags.occ_percent::cpu.inst     0.667440                       # Average percentage of cache occupancy
system.cpu.icache.tags.occ_percent::total     0.667440                       # Average percentage of cache occupancy
system.cpu.icache.tags.occ_task_id_blocks::1024          910                       # Occupied blocks per task id
system.cpu.icache.tags.age_task_id_blocks_1024::0            9                       # Occupied blocks per task id
system.cpu.icache.tags.age_task_id_blocks_1024::1           49                       # Occupied blocks per task id
system.cpu.icache.tags.age_task_id_blocks_1024::2           20                       # Occupied blocks per task id
system.cpu.icache.tags.age_task_id_blocks_1024::3           19                       # Occupied blocks per task id
system.cpu.icache.tags.age_task_id_blocks_1024::4          813                       # Occupied blocks per task id
system.cpu.icache.tags.occ_task_id_percent::1024     0.888672                       # Percentage of cache occupancy per task id
system.cpu.icache.tags.tag_accesses         676814626                       # Number of tag accesses
system.cpu.icache.tags.data_accesses        676814626                       # Number of data accesses
system.cpu.icache.ReadReq_hits::cpu.inst    673892698                       # number of ReadReq hits
system.cpu.icache.ReadReq_hits::total       673892698                       # number of ReadReq hits
system.cpu.icache.demand_hits::cpu.inst     673892698                       # number of demand (read+write) hits
system.cpu.icache.demand_hits::total        673892698                       # number of demand (read+write) hits
system.cpu.icache.overall_hits::cpu.inst    673892698                       # number of overall hits
system.cpu.icache.overall_hits::total       673892698                       # number of overall hits
system.cpu.icache.ReadReq_misses::cpu.inst      1460964                       # number of ReadReq misses
system.cpu.icache.ReadReq_misses::total       1460964                       # number of ReadReq misses
system.cpu.icache.demand_misses::cpu.inst      1460964                       # number of demand (read+write) misses
system.cpu.icache.demand_misses::total        1460964                       # number of demand (read+write) misses
system.cpu.icache.overall_misses::cpu.inst      1460964                       # number of overall misses
system.cpu.icache.overall_misses::total       1460964                       # number of overall misses
system.cpu.icache.ReadReq_miss_latency::cpu.inst  19321289500                       # number of ReadReq miss cycles
system.cpu.icache.ReadReq_miss_latency::total  19321289500                       # number of ReadReq miss cycles
system.cpu.icache.demand_miss_latency::cpu.inst  19321289500                       # number of demand (read+write) miss cycles
system.cpu.icache.demand_miss_latency::total  19321289500                       # number of demand (read+write) miss cycles
system.cpu.icache.overall_miss_latency::cpu.inst  19321289500                       # number of overall miss cycles
system.cpu.icache.overall_miss_latency::total  19321289500                       # number of overall miss cycles
system.cpu.icache.ReadReq_accesses::cpu.inst    675353662                       # number of ReadReq accesses(hits+misses)
system.cpu.icache.ReadReq_accesses::total    675353662                       # number of ReadReq accesses(hits+misses)
system.cpu.icache.demand_accesses::cpu.inst    675353662                       # number of demand (read+write) accesses
system.cpu.icache.demand_accesses::total    675353662                       # number of demand (read+write) accesses
system.cpu.icache.overall_accesses::cpu.inst    675353662                       # number of overall (read+write) accesses
system.cpu.icache.overall_accesses::total    675353662                       # number of overall (read+write) accesses
system.cpu.icache.ReadReq_miss_rate::cpu.inst     0.002163                       # miss rate for ReadReq accesses
system.cpu.icache.ReadReq_miss_rate::total     0.002163                       # miss rate for ReadReq accesses
system.cpu.icache.demand_miss_rate::cpu.inst     0.002163                       # miss rate for demand accesses
system.cpu.icache.demand_miss_rate::total     0.002163                       # miss rate for demand accesses
system.cpu.icache.overall_miss_rate::cpu.inst     0.002163                       # miss rate for overall accesses
system.cpu.icache.overall_miss_rate::total     0.002163                       # miss rate for overall accesses
system.cpu.icache.ReadReq_avg_miss_latency::cpu.inst 13225.027790                       # average ReadReq miss latency
system.cpu.icache.ReadReq_avg_miss_latency::total 13225.027790                       # average ReadReq miss latency
system.cpu.icache.demand_avg_miss_latency::cpu.inst 13225.027790                       # average overall miss latency
system.cpu.icache.demand_avg_miss_latency::total 13225.027790                       # average overall miss latency
system.cpu.icache.overall_avg_miss_latency::cpu.inst 13225.027790                       # average overall miss latency
system.cpu.icache.overall_avg_miss_latency::total 13225.027790                       # average overall miss latency
system.cpu.icache.blocked_cycles::no_mshrs            0                       # number of cycles access was blocked
system.cpu.icache.blocked_cycles::no_targets            0                       # number of cycles access was blocked
system.cpu.icache.blocked::no_mshrs                 0                       # number of cycles access was blocked
system.cpu.icache.blocked::no_targets               0                       # number of cycles access was blocked
system.cpu.icache.avg_blocked_cycles::no_mshrs          nan                       # average number of cycles each access was blocked
system.cpu.icache.avg_blocked_cycles::no_targets          nan                       # average number of cycles each access was blocked
system.cpu.icache.fast_writes                       0                       # number of fast writes performed
system.cpu.icache.cache_copies                      0                       # number of cache copies performed
system.cpu.icache.writebacks::writebacks      1460054                       # number of writebacks
system.cpu.icache.writebacks::total           1460054                       # number of writebacks
system.cpu.icache.ReadReq_mshr_misses::cpu.inst      1460964                       # number of ReadReq MSHR misses
system.cpu.icache.ReadReq_mshr_misses::total      1460964                       # number of ReadReq MSHR misses
system.cpu.icache.demand_mshr_misses::cpu.inst      1460964                       # number of demand (read+write) MSHR misses
system.cpu.icache.demand_mshr_misses::total      1460964                       # number of demand (read+write) MSHR misses
system.cpu.icache.overall_mshr_misses::cpu.inst      1460964                       # number of overall MSHR misses
system.cpu.icache.overall_mshr_misses::total      1460964                       # number of overall MSHR misses
system.cpu.icache.ReadReq_mshr_miss_latency::cpu.inst  17860325500                       # number of ReadReq MSHR miss cycles
system.cpu.icache.ReadReq_mshr_miss_latency::total  17860325500                       # number of ReadReq MSHR miss cycles
system.cpu.icache.demand_mshr_miss_latency::cpu.inst  17860325500                       # number of demand (read+write) MSHR miss cycles
system.cpu.icache.demand_mshr_miss_latency::total  17860325500                       # number of demand (read+write) MSHR miss cycles
system.cpu.icache.overall_mshr_miss_latency::cpu.inst  17860325500                       # number of overall MSHR miss cycles
system.cpu.icache.overall_mshr_miss_latency::total  17860325500                       # number of overall MSHR miss cycles
system.cpu.icache.ReadReq_mshr_miss_rate::cpu.inst     0.002163                       # mshr miss rate for ReadReq accesses
system.cpu.icache.ReadReq_mshr_miss_rate::total     0.002163                       # mshr miss rate for ReadReq accesses
system.cpu.icache.demand_mshr_miss_rate::cpu.inst     0.002163                       # mshr miss rate for demand accesses
system.cpu.icache.demand_mshr_miss_rate::total     0.002163                       # mshr miss rate for demand accesses
system.cpu.icache.overall_mshr_miss_rate::cpu.inst     0.002163                       # mshr miss rate for overall accesses
system.cpu.icache.overall_mshr_miss_rate::total     0.002163                       # mshr miss rate for overall accesses
system.cpu.icache.ReadReq_avg_mshr_miss_latency::cpu.inst 12225.027790                       # average ReadReq mshr miss latency
system.cpu.icache.ReadReq_avg_mshr_miss_latency::total 12225.027790                       # average ReadReq mshr miss latency
system.cpu.icache.demand_avg_mshr_miss_latency::cpu.inst 12225.027790                       # average overall mshr miss latency
system.cpu.icache.demand_avg_mshr_miss_latency::total 12225.027790                       # average overall mshr miss latency
system.cpu.icache.overall_avg_mshr_miss_latency::cpu.inst 12225.027790                       # average overall mshr miss latency
system.cpu.icache.overall_avg_mshr_miss_latency::total 12225.027790                       # average overall mshr miss latency
system.cpu.icache.no_allocate_misses                0                       # Number of misses that were no-allocate
system.cpu.itb_walker_cache.tags.replacements            0                       # number of replacements
system.cpu.itb_walker_cache.tags.tagsinuse            0                       # Cycle average of tags in use
system.cpu.itb_walker_cache.tags.total_refs            0                       # Total number of references to valid blocks.
system.cpu.itb_walker_cache.tags.sampled_refs            0                       # Sample count of references to valid blocks.
system.cpu.itb_walker_cache.tags.avg_refs          nan                       # Average number of references to valid blocks.
system.cpu.itb_walker_cache.tags.warmup_cycle            0                       # Cycle when the warmup percentage was hit.
system.cpu.itb_walker_cache.tags.tag_accesses            0                       # Number of tag accesses
system.cpu.itb_walker_cache.tags.data_accesses            0                       # Number of data accesses
system.cpu.itb_walker_cache.blocked_cycles::no_mshrs            0                       # number of cycles access was blocked
system.cpu.itb_walker_cache.blocked_cycles::no_targets            0                       # number of cycles access was blocked
system.cpu.itb_walker_cache.blocked::no_mshrs            0                       # number of cycles access was blocked
system.cpu.itb_walker_cache.blocked::no_targets            0                       # number of cycles access was blocked
system.cpu.itb_walker_cache.avg_blocked_cycles::no_mshrs          nan                       # average number of cycles each access was blocked
system.cpu.itb_walker_cache.avg_blocked_cycles::no_targets          nan                       # average number of cycles each access was blocked
system.cpu.itb_walker_cache.fast_writes             0                       # number of fast writes performed
system.cpu.itb_walker_cache.cache_copies            0                       # number of cache copies performed
system.cpu.itb_walker_cache.no_allocate_misses            0                       # Number of misses that were no-allocate
system.l2.tags.replacements                   8426319                       # number of replacements
system.l2.tags.tagsinuse                 15702.117177                       # Cycle average of tags in use
system.l2.tags.total_refs                     3943819                       # Total number of references to valid blocks.
system.l2.tags.sampled_refs                   8442529                       # Sample count of references to valid blocks.
system.l2.tags.avg_refs                      0.467137                       # Average number of references to valid blocks.
system.l2.tags.warmup_cycle                         0                       # Cycle when the warmup percentage was hit.
system.l2.tags.occ_blocks::writebacks    10427.717165                       # Average occupied blocks per requestor
system.l2.tags.occ_blocks::cpu.inst        159.322191                       # Average occupied blocks per requestor
system.l2.tags.occ_blocks::cpu.data       5115.077822                       # Average occupied blocks per requestor
system.l2.tags.occ_percent::writebacks       0.636457                       # Average percentage of cache occupancy
system.l2.tags.occ_percent::cpu.inst         0.009724                       # Average percentage of cache occupancy
system.l2.tags.occ_percent::cpu.data         0.312200                       # Average percentage of cache occupancy
system.l2.tags.occ_percent::total            0.958381                       # Average percentage of cache occupancy
system.l2.tags.occ_task_id_blocks::1024         16210                       # Occupied blocks per task id
system.l2.tags.age_task_id_blocks_1024::1           22                       # Occupied blocks per task id
system.l2.tags.age_task_id_blocks_1024::2          124                       # Occupied blocks per task id
system.l2.tags.age_task_id_blocks_1024::3          928                       # Occupied blocks per task id
system.l2.tags.age_task_id_blocks_1024::4        15136                       # Occupied blocks per task id
system.l2.tags.occ_task_id_percent::1024     0.989380                       # Percentage of cache occupancy per task id
system.l2.tags.tag_accesses                  37781876                       # Number of tag accesses
system.l2.tags.data_accesses                 37781876                       # Number of data accesses
system.l2.WritebackDirty_hits::writebacks      8707446                       # number of WritebackDirty hits
system.l2.WritebackDirty_hits::total          8707446                       # number of WritebackDirty hits
system.l2.WritebackClean_hits::writebacks      1460054                       # number of WritebackClean hits
system.l2.WritebackClean_hits::total          1460054                       # number of WritebackClean hits
system.l2.ReadExReq_hits::cpu.data             162918                       # number of ReadExReq hits
system.l2.ReadExReq_hits::total                162918                       # number of ReadExReq hits
system.l2.ReadCleanReq_hits::cpu.inst         1456651                       # number of ReadCleanReq hits
system.l2.ReadCleanReq_hits::total            1456651                       # number of ReadCleanReq hits
system.l2.ReadSharedReq_hits::cpu.data         418536                       # number of ReadSharedReq hits
system.l2.ReadSharedReq_hits::total            418536                       # number of ReadSharedReq hits
system.l2.demand_hits::cpu.inst               1456651                       # number of demand (read+write) hits
system.l2.demand_hits::cpu.data                581454                       # number of demand (read+write) hits
system.l2.demand_hits::total                  2038105                       # number of demand (read+write) hits
system.l2.overall_hits::cpu.inst              1456651                       # number of overall hits
system.l2.overall_hits::cpu.data               581454                       # number of overall hits
system.l2.overall_hits::total                 2038105                       # number of overall hits
system.l2.ReadExReq_misses::cpu.data          8298076                       # number of ReadExReq misses
system.l2.ReadExReq_misses::total             8298076                       # number of ReadExReq misses
system.l2.ReadCleanReq_misses::cpu.inst          4313                       # number of ReadCleanReq misses
system.l2.ReadCleanReq_misses::total             4313                       # number of ReadCleanReq misses
system.l2.ReadSharedReq_misses::cpu.data        99650                       # number of ReadSharedReq misses
system.l2.ReadSharedReq_misses::total           99650                       # number of ReadSharedReq misses
system.l2.demand_misses::cpu.inst                4313                       # number of demand (read+write) misses
system.l2.demand_misses::cpu.data             8397726                       # number of demand (read+write) misses
system.l2.demand_misses::total                8402039                       # number of demand (read+write) misses
system.l2.overall_misses::cpu.inst               4313                       # number of overall misses
system.l2.overall_misses::cpu.data            8397726                       # number of overall misses
system.l2.overall_misses::total               8402039                       # number of overall misses
system.l2.ReadExReq_miss_latency::cpu.data 655221053000                       # number of ReadExReq miss cycles
system.l2.ReadExReq_miss_latency::total  655221053000                       # number of ReadExReq miss cycles
system.l2.ReadCleanReq_miss_latency::cpu.inst    361671500                       # number of ReadCleanReq miss cycles
system.l2.ReadCleanReq_miss_latency::total    361671500                       # number of ReadCleanReq miss cycles
system.l2.ReadSharedReq_miss_latency::cpu.data   8670114000                       # number of ReadSharedReq miss cycles
system.l2.ReadSharedReq_miss_latency::total   8670114000                       # number of ReadSharedReq miss cycles
system.l2.demand_miss_latency::cpu.inst     361671500                       # number of demand (read+write) miss cycles
system.l2.demand_miss_latency::cpu.data  663891167000                       # number of demand (read+write) miss cycles
system.l2.demand_miss_latency::total     664252838500                       # number of demand (read+write) miss cycles
system.l2.overall_miss_latency::cpu.inst    361671500                       # number of overall miss cycles
system.l2.overall_miss_latency::cpu.data 663891167000                       # number of overall miss cycles
system.l2.overall_miss_latency::total    664252838500                       # number of overall miss cycles
system.l2.WritebackDirty_accesses::writebacks      8707446                       # number of WritebackDirty accesses(hits+misses)
system.l2.WritebackDirty_accesses::total      8707446                       # number of WritebackDirty accesses(hits+misses)
system.l2.WritebackClean_accesses::writebacks      1460054                       # number of WritebackClean accesses(hits+misses)
system.l2.WritebackClean_accesses::total      1460054                       # number of WritebackClean accesses(hits+misses)
system.l2.ReadExReq_accesses::cpu.data        8460994                       # number of ReadExReq accesses(hits+misses)
system.l2.ReadExReq_accesses::total           8460994                       # number of ReadExReq accesses(hits+misses)
system.l2.ReadCleanReq_accesses::cpu.inst      1460964                       # number of ReadCleanReq accesses(hits+misses)
system.l2.ReadCleanReq_accesses::total        1460964                       # number of ReadCleanReq accesses(hits+misses)
system.l2.ReadSharedReq_accesses::cpu.data       518186                       # number of ReadSharedReq accesses(hits+misses)
system.l2.ReadSharedReq_accesses::total        518186                       # number of ReadSharedReq accesses(hits+misses)
system.l2.demand_accesses::cpu.inst           1460964                       # number of demand (read+write) accesses
system.l2.demand_accesses::cpu.data           8979180                       # number of demand (read+write) accesses
system.l2.demand_accesses::total             10440144                       # number of demand (read+write) accesses
system.l2.overall_accesses::cpu.inst          1460964                       # number of overall (read+write) accesses
system.l2.overall_accesses::cpu.data          8979180                       # number of overall (read+write) accesses
system.l2.overall_accesses::total            10440144                       # number of overall (read+write) accesses
system.l2.ReadExReq_miss_rate::cpu.data      0.980745                       # miss rate for ReadExReq accesses
system.l2.ReadExReq_miss_rate::total         0.980745                       # miss rate for ReadExReq accesses
system.l2.ReadCleanReq_miss_rate::cpu.inst     0.002952                       # miss rate for ReadCleanReq accesses
system.l2.ReadCleanReq_miss_rate::total      0.002952                       # miss rate for ReadCleanReq accesses
system.l2.ReadSharedReq_miss_rate::cpu.data     0.192305                       # miss rate for ReadSharedReq accesses
system.l2.ReadSharedReq_miss_rate::total     0.192305                       # miss rate for ReadSharedReq accesses
system.l2.demand_miss_rate::cpu.inst         0.002952                       # miss rate for demand accesses
system.l2.demand_miss_rate::cpu.data         0.935244                       # miss rate for demand accesses
system.l2.demand_miss_rate::total            0.804782                       # miss rate for demand accesses
system.l2.overall_miss_rate::cpu.inst        0.002952                       # miss rate for overall accesses
system.l2.overall_miss_rate::cpu.data        0.935244                       # miss rate for overall accesses
system.l2.overall_miss_rate::total           0.804782                       # miss rate for overall accesses
system.l2.ReadExReq_avg_miss_latency::cpu.data 78960.599180                       # average ReadExReq miss latency
system.l2.ReadExReq_avg_miss_latency::total 78960.599180                       # average ReadExReq miss latency
system.l2.ReadCleanReq_avg_miss_latency::cpu.inst 83856.132622                       # average ReadCleanReq miss latency
system.l2.ReadCleanReq_avg_miss_latency::total 83856.132622                       # average ReadCleanReq miss latency
system.l2.ReadSharedReq_avg_miss_latency::cpu.data 87005.659809                       # average ReadSharedReq miss latency
system.l2.ReadSharedReq_avg_miss_latency::total 87005.659809                       # average ReadSharedReq miss latency
system.l2.demand_avg_miss_latency::cpu.inst 83856.132622                       # average overall miss latency
system.l2.demand_avg_miss_latency::cpu.data 79056.064344                       # average overall miss latency
system.l2.demand_avg_miss_latency::total 79058.528352                       # average overall miss latency
system.l2.overall_avg_miss_latency::cpu.inst 83856.132622                       # average overall miss latency
system.l2.overall_avg_miss_latency::cpu.data 79056.064344                       # average overall miss latency
system.l2.overall_avg_miss_latency::total 79058.528352                       # average overall miss latency
system.l2.blocked_cycles::no_mshrs                  0                       # number of cycles access was blocked
system.l2.blocked_cycles::no_targets                0                       # number of cycles access was blocked
system.l2.blocked::no_mshrs                         0                       # number of cycles access was blocked
system.l2.blocked::no_targets                       0                       # number of cycles access was blocked
system.l2.avg_blocked_cycles::no_mshrs            nan                       # average number of cycles each access was blocked
system.l2.avg_blocked_cycles::no_targets          nan                       # average number of cycles each access was blocked
system.l2.fast_writes                               0                       # number of fast writes performed
system.l2.cache_copies                              0                       # number of cache copies performed
system.l2.writebacks::writebacks              8349097                       # number of writebacks
system.l2.writebacks::total                   8349097                       # number of writebacks
system.l2.CleanEvict_mshr_misses::writebacks        18291                       # number of CleanEvict MSHR misses
system.l2.CleanEvict_mshr_misses::total         18291                       # number of CleanEvict MSHR misses
system.l2.ReadExReq_mshr_misses::cpu.data      8298076                       # number of ReadExReq MSHR misses
system.l2.ReadExReq_mshr_misses::total        8298076                       # number of ReadExReq MSHR misses
system.l2.ReadCleanReq_mshr_misses::cpu.inst         4313                       # number of ReadCleanReq MSHR misses
system.l2.ReadCleanReq_mshr_misses::total         4313                       # number of ReadCleanReq MSHR misses
system.l2.ReadSharedReq_mshr_misses::cpu.data        99650                       # number of ReadSharedReq MSHR misses
system.l2.ReadSharedReq_mshr_misses::total        99650                       # number of ReadSharedReq MSHR misses
system.l2.demand_mshr_misses::cpu.inst           4313                       # number of demand (read+write) MSHR misses
system.l2.demand_mshr_misses::cpu.data        8397726                       # number of demand (read+write) MSHR misses
system.l2.demand_mshr_misses::total           8402039                       # number of demand (read+write) MSHR misses
system.l2.overall_mshr_misses::cpu.inst          4313                       # number of overall MSHR misses
system.l2.overall_mshr_misses::cpu.data       8397726                       # number of overall MSHR misses
system.l2.overall_mshr_misses::total          8402039                       # number of overall MSHR misses
system.l2.ReadExReq_mshr_miss_latency::cpu.data 572240293000                       # number of ReadExReq MSHR miss cycles
system.l2.ReadExReq_mshr_miss_latency::total 572240293000                       # number of ReadExReq MSHR miss cycles
system.l2.ReadCleanReq_mshr_miss_latency::cpu.inst    318541500                       # number of ReadCleanReq MSHR miss cycles
system.l2.ReadCleanReq_mshr_miss_latency::total    318541500                       # number of ReadCleanReq MSHR miss cycles
system.l2.ReadSharedReq_mshr_miss_latency::cpu.data   7673614000                       # number of ReadSharedReq MSHR miss cycles
system.l2.ReadSharedReq_mshr_miss_latency::total   7673614000                       # number of ReadSharedReq MSHR miss cycles
system.l2.demand_mshr_miss_latency::cpu.inst    318541500                       # number of demand (read+write) MSHR miss cycles
system.l2.demand_mshr_miss_latency::cpu.data 579913907000                       # number of demand (read+write) MSHR miss cycles
system.l2.demand_mshr_miss_latency::total 580232448500                       # number of demand (read+write) MSHR miss cycles
system.l2.overall_mshr_miss_latency::cpu.inst    318541500                       # number of overall MSHR miss cycles
system.l2.overall_mshr_miss_latency::cpu.data 579913907000                       # number of overall MSHR miss cycles
system.l2.overall_mshr_miss_latency::total 580232448500                       # number of overall MSHR miss cycles
system.l2.CleanEvict_mshr_miss_rate::writebacks          inf                       # mshr miss rate for CleanEvict accesses
system.l2.CleanEvict_mshr_miss_rate::total          inf                       # mshr miss rate for CleanEvict accesses
system.l2.ReadExReq_mshr_miss_rate::cpu.data     0.980745                       # mshr miss rate for ReadExReq accesses
system.l2.ReadExReq_mshr_miss_rate::total     0.980745                       # mshr miss rate for ReadExReq accesses
system.l2.ReadCleanReq_mshr_miss_rate::cpu.inst     0.002952                       # mshr miss rate for ReadCleanReq accesses
system.l2.ReadCleanReq_mshr_miss_rate::total     0.002952                       # mshr miss rate for ReadCleanReq accesses
system.l2.ReadSharedReq_mshr_miss_rate::cpu.data     0.192305                       # mshr miss rate for ReadSharedReq accesses
system.l2.ReadSharedReq_mshr_miss_rate::total     0.192305                       # mshr miss rate for ReadSharedReq accesses
system.l2.demand_mshr_miss_rate::cpu.inst     0.002952                       # mshr miss rate for demand accesses
system.l2.demand_mshr_miss_rate::cpu.data     0.935244                       # mshr miss rate for demand accesses
system.l2.demand_mshr_miss_rate::total       0.804782                       # mshr miss rate for demand accesses
system.l2.overall_mshr_miss_rate::cpu.inst     0.002952                       # mshr miss rate for overall accesses
system.l2.overall_mshr_miss_rate::cpu.data     0.935244                       # mshr miss rate for overall accesses
system.l2.overall_mshr_miss_rate::total      0.804782                       # mshr miss rate for overall accesses
system.l2.ReadExReq_avg_mshr_miss_latency::cpu.data 68960.599180                       # average ReadExReq mshr miss latency
system.l2.ReadExReq_avg_mshr_miss_latency::total 68960.599180                       # average ReadExReq mshr miss latency
system.l2.ReadCleanReq_avg_mshr_miss_latency::cpu.inst 73856.132622                       # average ReadCleanReq mshr miss latency
system.l2.ReadCleanReq_avg_mshr_miss_latency::total 73856.132622                       # average ReadCleanReq mshr miss latency
system.l2.ReadSharedReq_avg_mshr_miss_latency::cpu.data 77005.659809                       # average ReadSharedReq mshr miss latency
system.l2.ReadSharedReq_avg_mshr_miss_latency::total 77005.659809                       # average ReadSharedReq mshr miss latency
system.l2.demand_avg_mshr_miss_latency::cpu.inst 73856.132622                       # average overall mshr miss latency
system.l2.demand_avg_mshr_miss_latency::cpu.data 69056.064344                       # average overall mshr miss latency
system.l2.demand_avg_mshr_miss_latency::total 69058.528352                       # average overall mshr miss latency
system.l2.overall_avg_mshr_miss_latency::cpu.inst 73856.132622                       # average overall mshr miss latency
system.l2.overall_avg_mshr_miss_latency::cpu.data 69056.064344                       # average overall mshr miss latency
system.l2.overall_avg_mshr_miss_latency::total 69058.528352                       # average overall mshr miss latency
system.l2.no_allocate_misses                        0                       # Number of misses that were no-allocate
system.membus.trans_dist::ReadResp             103963                       # Transaction distribution
system.membus.trans_dist::WritebackDirty      8349097                       # Transaction distribution
system.membus.trans_dist::CleanEvict            35782                       # Transaction distribution
system.membus.trans_dist::ReadExReq           8298076                       # Transaction distribution
system.membus.trans_dist::ReadExResp          8298076                       # Transaction distribution
system.membus.trans_dist::ReadSharedReq        103963                       # Transaction distribution
system.membus.pkt_count_system.l2.mem_side::system.mem_ctrls.port     25188957                       # Packet count per connected master and slave (bytes)
system.membus.pkt_count_system.l2.mem_side::total     25188957                       # Packet count per connected master and slave (bytes)
system.membus.pkt_count::total               25188957                       # Packet count per connected master and slave (bytes)
system.membus.pkt_size_system.l2.mem_side::system.mem_ctrls.port   1072072704                       # Cumulative packet size per connected master and slave (bytes)
system.membus.pkt_size_system.l2.mem_side::total   1072072704                       # Cumulative packet size per connected master and slave (bytes)
system.membus.pkt_size::total              1072072704                       # Cumulative packet size per connected master and slave (bytes)
system.membus.snoops                                0                       # Total snoops (count)
system.membus.snoop_fanout::samples          16786918                       # Request fanout histogram
system.membus.snoop_fanout::mean                    0                       # Request fanout histogram
system.membus.snoop_fanout::stdev                   0                       # Request fanout histogram
system.membus.snoop_fanout::underflows              0      0.00%      0.00% # Request fanout histogram
system.membus.snoop_fanout::0                16786918    100.00%    100.00% # Request fanout histogram
system.membus.snoop_fanout::1                       0      0.00%    100.00% # Request fanout histogram
system.membus.snoop_fanout::overflows               0      0.00%    100.00% # Request fanout histogram
system.membus.snoop_fanout::min_value               0                       # Request fanout histogram
system.membus.snoop_fanout::max_value               0                       # Request fanout histogram
system.membus.snoop_fanout::total            16786918                       # Request fanout histogram
system.membus.reqLayer2.occupancy         50193613000                       # Layer occupancy (ticks)
system.membus.reqLayer2.utilization               3.0                       # Layer utilization (%)
system.membus.respLayer1.occupancy        44218694500                       # Layer occupancy (ticks)
system.membus.respLayer1.utilization              2.7                       # Layer utilization (%)
system.tol2bus.snoop_filter.tot_requests     20878354                       # Total number of requests made to the snoop filter.
system.tol2bus.snoop_filter.hit_single_requests     10438210                       # Number of requests hitting in the snoop filter with a single holder of the requested data.
system.tol2bus.snoop_filter.hit_multi_requests            1                       # Number of requests hitting in the snoop filter with multiple (>1) holders of the requested data.
system.tol2bus.snoop_filter.tot_snoops          59731                       # Total number of snoops made to the snoop filter.
system.tol2bus.snoop_filter.hit_single_snoops        59730                       # Number of snoops hitting in the snoop filter with a single holder of the requested data.
system.tol2bus.snoop_filter.hit_multi_snoops            1                       # Number of snoops hitting in the snoop filter with multiple (>1) holders of the requested data.
system.tol2bus.trans_dist::ReadResp           1979150                       # Transaction distribution
system.tol2bus.trans_dist::WritebackDirty     17056543                       # Transaction distribution
system.tol2bus.trans_dist::WritebackClean      1460054                       # Transaction distribution
system.tol2bus.trans_dist::CleanEvict          347931                       # Transaction distribution
system.tol2bus.trans_dist::ReadExReq          8460994                       # Transaction distribution
system.tol2bus.trans_dist::ReadExResp         8460994                       # Transaction distribution
system.tol2bus.trans_dist::ReadCleanReq       1460964                       # Transaction distribution
system.tol2bus.trans_dist::ReadSharedReq       518186                       # Transaction distribution
system.tol2bus.pkt_count_system.cpu.icache.mem_side::system.l2.cpu_side      4381982                       # Packet count per connected master and slave (bytes)
system.tol2bus.pkt_count_system.cpu.dcache.mem_side::system.l2.cpu_side     26936515                       # Packet count per connected master and slave (bytes)
system.tol2bus.pkt_count::total              31318497                       # Packet count per connected master and slave (bytes)
system.tol2bus.pkt_size_system.cpu.icache.mem_side::system.l2.cpu_side    186945152                       # Cumulative packet size per connected master and slave (bytes)
system.tol2bus.pkt_size_system.cpu.dcache.mem_side::system.l2.cpu_side   1131944064                       # Cumulative packet size per connected master and slave (bytes)
system.tol2bus.pkt_size::total             1318889216                       # Cumulative packet size per connected master and slave (bytes)
system.tol2bus.snoops                         8426319                       # Total snoops (count)
system.tol2bus.snoop_fanout::samples         18866463                       # Request fanout histogram
system.tol2bus.snoop_fanout::mean            0.003166                       # Request fanout histogram
system.tol2bus.snoop_fanout::stdev           0.056180                       # Request fanout histogram
system.tol2bus.snoop_fanout::underflows             0      0.00%      0.00% # Request fanout histogram
system.tol2bus.snoop_fanout::0               18806731     99.68%     99.68% # Request fanout histogram
system.tol2bus.snoop_fanout::1                  59731      0.32%    100.00% # Request fanout histogram
system.tol2bus.snoop_fanout::2                      1      0.00%    100.00% # Request fanout histogram
system.tol2bus.snoop_fanout::3                      0      0.00%    100.00% # Request fanout histogram
system.tol2bus.snoop_fanout::4                      0      0.00%    100.00% # Request fanout histogram
system.tol2bus.snoop_fanout::overflows              0      0.00%    100.00% # Request fanout histogram
system.tol2bus.snoop_fanout::min_value              0                       # Request fanout histogram
system.tol2bus.snoop_fanout::max_value              2                       # Request fanout histogram
system.tol2bus.snoop_fanout::total           18866463                       # Request fanout histogram
system.tol2bus.reqLayer0.occupancy        20606677000                       # Layer occupancy (ticks)
system.tol2bus.reqLayer0.utilization              1.3                       # Layer utilization (%)
system.tol2bus.respLayer0.occupancy        2191446000                       # Layer occupancy (ticks)
system.tol2bus.respLayer0.utilization             0.1                       # Layer utilization (%)
system.tol2bus.respLayer1.occupancy       13468770000                       # Layer occupancy (ticks)
system.tol2bus.respLayer1.utilization             0.8                       # Layer utilization (%)

---------- End Simulation Statistics   ----------
