
---------- Begin Simulation Statistics ----------
sim_seconds                                  2.260200                       # Number of seconds simulated
sim_ticks                                2260200106500                       # Number of ticks simulated
final_tick                               2260200106500                       # Number of ticks from beginning of simulation (restored from checkpoints and never reset)
sim_freq                                 1000000000000                       # Frequency of simulated ticks
host_inst_rate                                 306683                       # Simulator instruction rate (inst/s)
host_op_rate                                   505025                       # Simulator op (including micro ops) rate (op/s)
host_tick_rate                             1386329172                       # Simulator tick rate (ticks/s)
host_mem_usage                                 836468                       # Number of bytes of host memory used
host_seconds                                  1630.35                       # Real time elapsed on the host
sim_insts                                   500000000                       # Number of instructions simulated
sim_ops                                     823366688                       # Number of ops (including micro ops) simulated
system.voltage_domain.voltage                       1                       # Voltage in Volts
system.clk_domain.clock                          1000                       # Clock period in ticks
system.mem_ctrls.bytes_read::cpu.inst          149920                       # Number of bytes read from this memory
system.mem_ctrls.bytes_read::cpu.data       533456544                       # Number of bytes read from this memory
system.mem_ctrls.bytes_read::total          533606464                       # Number of bytes read from this memory
system.mem_ctrls.bytes_inst_read::cpu.inst       149920                       # Number of instructions bytes read from this memory
system.mem_ctrls.bytes_inst_read::total        149920                       # Number of instructions bytes read from this memory
system.mem_ctrls.bytes_written::writebacks    531999712                       # Number of bytes written to this memory
system.mem_ctrls.bytes_written::total       531999712                       # Number of bytes written to this memory
system.mem_ctrls.num_reads::cpu.inst             4685                       # Number of read requests responded to by this memory
system.mem_ctrls.num_reads::cpu.data         16670517                       # Number of read requests responded to by this memory
system.mem_ctrls.num_reads::total            16675202                       # Number of read requests responded to by this memory
system.mem_ctrls.num_writes::writebacks      16624991                       # Number of write requests responded to by this memory
system.mem_ctrls.num_writes::total           16624991                       # Number of write requests responded to by this memory
system.mem_ctrls.bw_read::cpu.inst              66330                       # Total read bandwidth from this memory (bytes/s)
system.mem_ctrls.bw_read::cpu.data          236021821                       # Total read bandwidth from this memory (bytes/s)
system.mem_ctrls.bw_read::total             236088151                       # Total read bandwidth from this memory (bytes/s)
system.mem_ctrls.bw_inst_read::cpu.inst         66330                       # Instruction read bandwidth from this memory (bytes/s)
system.mem_ctrls.bw_inst_read::total            66330                       # Instruction read bandwidth from this memory (bytes/s)
system.mem_ctrls.bw_write::writebacks       235377262                       # Write bandwidth from this memory (bytes/s)
system.mem_ctrls.bw_write::total            235377262                       # Write bandwidth from this memory (bytes/s)
system.mem_ctrls.bw_total::writebacks       235377262                       # Total bandwidth to/from this memory (bytes/s)
system.mem_ctrls.bw_total::cpu.inst             66330                       # Total bandwidth to/from this memory (bytes/s)
system.mem_ctrls.bw_total::cpu.data         236021821                       # Total bandwidth to/from this memory (bytes/s)
system.mem_ctrls.bw_total::total            471465413                       # Total bandwidth to/from this memory (bytes/s)
system.mem_ctrls.readReqs                    16675202                       # Number of read requests accepted
system.mem_ctrls.writeReqs                   16624991                       # Number of write requests accepted
system.mem_ctrls.readBursts                  16675202                       # Number of DRAM read bursts, including those serviced by the write queue
system.mem_ctrls.writeBursts                 16624991                       # Number of DRAM write bursts, including those merged in the write queue
system.mem_ctrls.bytesReadDRAM             1067211008                       # Total number of bytes read from DRAM
system.mem_ctrls.bytesReadWrQ                    1920                       # Total number of bytes read from write queue
system.mem_ctrls.bytesWritten               534477824                       # Total number of bytes written to DRAM
system.mem_ctrls.bytesReadSys               533606464                       # Total read bytes from the system interface side
system.mem_ctrls.bytesWrittenSys            531999712                       # Total written bytes from the system interface side
system.mem_ctrls.servicedByWrQ                     30                       # Number of DRAM read bursts serviced by the write queue
system.mem_ctrls.mergedWrBursts               8273759                       # Number of DRAM write bursts merged with an existing one
system.mem_ctrls.neitherReadNorWriteReqs        15265                       # Number of requests that are neither read nor write
system.mem_ctrls.perBankRdBursts::0           1041860                       # Per bank write bursts
system.mem_ctrls.perBankRdBursts::1           1041548                       # Per bank write bursts
system.mem_ctrls.perBankRdBursts::2           1041902                       # Per bank write bursts
system.mem_ctrls.perBankRdBursts::3           1042661                       # Per bank write bursts
system.mem_ctrls.perBankRdBursts::4           1042468                       # Per bank write bursts
system.mem_ctrls.perBankRdBursts::5           1042514                       # Per bank write bursts
system.mem_ctrls.perBankRdBursts::6           1041973                       # Per bank write bursts
system.mem_ctrls.perBankRdBursts::7           1042036                       # Per bank write bursts
system.mem_ctrls.perBankRdBursts::8           1041351                       # Per bank write bursts
system.mem_ctrls.perBankRdBursts::9           1041829                       # Per bank write bursts
system.mem_ctrls.perBankRdBursts::10          1042093                       # Per bank write bursts
system.mem_ctrls.perBankRdBursts::11          1043113                       # Per bank write bursts
system.mem_ctrls.perBankRdBursts::12          1042685                       # Per bank write bursts
system.mem_ctrls.perBankRdBursts::13          1042465                       # Per bank write bursts
system.mem_ctrls.perBankRdBursts::14          1042318                       # Per bank write bursts
system.mem_ctrls.perBankRdBursts::15          1042356                       # Per bank write bursts
system.mem_ctrls.perBankWrBursts::0            521847                       # Per bank write bursts
system.mem_ctrls.perBankWrBursts::1            521643                       # Per bank write bursts
system.mem_ctrls.perBankWrBursts::2            521880                       # Per bank write bursts
system.mem_ctrls.perBankWrBursts::3            522170                       # Per bank write bursts
system.mem_ctrls.perBankWrBursts::4            521978                       # Per bank write bursts
system.mem_ctrls.perBankWrBursts::5            522190                       # Per bank write bursts
system.mem_ctrls.perBankWrBursts::6            521776                       # Per bank write bursts
system.mem_ctrls.perBankWrBursts::7            521978                       # Per bank write bursts
system.mem_ctrls.perBankWrBursts::8            521685                       # Per bank write bursts
system.mem_ctrls.perBankWrBursts::9            521865                       # Per bank write bursts
system.mem_ctrls.perBankWrBursts::10           521908                       # Per bank write bursts
system.mem_ctrls.perBankWrBursts::11           522092                       # Per bank write bursts
system.mem_ctrls.perBankWrBursts::12           522107                       # Per bank write bursts
system.mem_ctrls.perBankWrBursts::13           522181                       # Per bank write bursts
system.mem_ctrls.perBankWrBursts::14           521996                       # Per bank write bursts
system.mem_ctrls.perBankWrBursts::15           521920                       # Per bank write bursts
system.mem_ctrls.numRdRetry                         0                       # Number of times read queue was full causing retry
system.mem_ctrls.numWrRetry                         0                       # Number of times write queue was full causing retry
system.mem_ctrls.totGap                  2260187016500                       # Total gap between requests
system.mem_ctrls.readPktSize::0                     0                       # Read request sizes (log2)
system.mem_ctrls.readPktSize::1                     0                       # Read request sizes (log2)
system.mem_ctrls.readPktSize::2                     0                       # Read request sizes (log2)
system.mem_ctrls.readPktSize::3                     0                       # Read request sizes (log2)
system.mem_ctrls.readPktSize::4                     0                       # Read request sizes (log2)
system.mem_ctrls.readPktSize::5              16675202                       # Read request sizes (log2)
system.mem_ctrls.readPktSize::6                     0                       # Read request sizes (log2)
system.mem_ctrls.writePktSize::0                    0                       # Write request sizes (log2)
system.mem_ctrls.writePktSize::1                    0                       # Write request sizes (log2)
system.mem_ctrls.writePktSize::2                    0                       # Write request sizes (log2)
system.mem_ctrls.writePktSize::3                    0                       # Write request sizes (log2)
system.mem_ctrls.writePktSize::4                    0                       # Write request sizes (log2)
system.mem_ctrls.writePktSize::5             16624991                       # Write request sizes (log2)
system.mem_ctrls.writePktSize::6                    0                       # Write request sizes (log2)
system.mem_ctrls.rdQLenPdf::0                16675171                       # What read queue length does an incoming req see
system.mem_ctrls.rdQLenPdf::1                       1                       # What read queue length does an incoming req see
system.mem_ctrls.rdQLenPdf::2                       0                       # What read queue length does an incoming req see
system.mem_ctrls.rdQLenPdf::3                       0                       # What read queue length does an incoming req see
system.mem_ctrls.rdQLenPdf::4                       0                       # What read queue length does an incoming req see
system.mem_ctrls.rdQLenPdf::5                       0                       # What read queue length does an incoming req see
system.mem_ctrls.rdQLenPdf::6                       0                       # What read queue length does an incoming req see
system.mem_ctrls.rdQLenPdf::7                       0                       # What read queue length does an incoming req see
system.mem_ctrls.rdQLenPdf::8                       0                       # What read queue length does an incoming req see
system.mem_ctrls.rdQLenPdf::9                       0                       # What read queue length does an incoming req see
system.mem_ctrls.rdQLenPdf::10                      0                       # What read queue length does an incoming req see
system.mem_ctrls.rdQLenPdf::11                      0                       # What read queue length does an incoming req see
system.mem_ctrls.rdQLenPdf::12                      0                       # What read queue length does an incoming req see
system.mem_ctrls.rdQLenPdf::13                      0                       # What read queue length does an incoming req see
system.mem_ctrls.rdQLenPdf::14                      0                       # What read queue length does an incoming req see
system.mem_ctrls.rdQLenPdf::15                      0                       # What read queue length does an incoming req see
system.mem_ctrls.rdQLenPdf::16                      0                       # What read queue length does an incoming req see
system.mem_ctrls.rdQLenPdf::17                      0                       # What read queue length does an incoming req see
system.mem_ctrls.rdQLenPdf::18                      0                       # What read queue length does an incoming req see
system.mem_ctrls.rdQLenPdf::19                      0                       # What read queue length does an incoming req see
system.mem_ctrls.rdQLenPdf::20                      0                       # What read queue length does an incoming req see
system.mem_ctrls.rdQLenPdf::21                      0                       # What read queue length does an incoming req see
system.mem_ctrls.rdQLenPdf::22                      0                       # What read queue length does an incoming req see
system.mem_ctrls.rdQLenPdf::23                      0                       # What read queue length does an incoming req see
system.mem_ctrls.rdQLenPdf::24                      0                       # What read queue length does an incoming req see
system.mem_ctrls.rdQLenPdf::25                      0                       # What read queue length does an incoming req see
system.mem_ctrls.rdQLenPdf::26                      0                       # What read queue length does an incoming req see
system.mem_ctrls.rdQLenPdf::27                      0                       # What read queue length does an incoming req see
system.mem_ctrls.rdQLenPdf::28                      0                       # What read queue length does an incoming req see
system.mem_ctrls.rdQLenPdf::29                      0                       # What read queue length does an incoming req see
system.mem_ctrls.rdQLenPdf::30                      0                       # What read queue length does an incoming req see
system.mem_ctrls.rdQLenPdf::31                      0                       # What read queue length does an incoming req see
system.mem_ctrls.wrQLenPdf::0                       1                       # What write queue length does an incoming req see
system.mem_ctrls.wrQLenPdf::1                       1                       # What write queue length does an incoming req see
system.mem_ctrls.wrQLenPdf::2                       1                       # What write queue length does an incoming req see
system.mem_ctrls.wrQLenPdf::3                       1                       # What write queue length does an incoming req see
system.mem_ctrls.wrQLenPdf::4                       1                       # What write queue length does an incoming req see
system.mem_ctrls.wrQLenPdf::5                       1                       # What write queue length does an incoming req see
system.mem_ctrls.wrQLenPdf::6                       1                       # What write queue length does an incoming req see
system.mem_ctrls.wrQLenPdf::7                       1                       # What write queue length does an incoming req see
system.mem_ctrls.wrQLenPdf::8                       1                       # What write queue length does an incoming req see
system.mem_ctrls.wrQLenPdf::9                       1                       # What write queue length does an incoming req see
system.mem_ctrls.wrQLenPdf::10                      1                       # What write queue length does an incoming req see
system.mem_ctrls.wrQLenPdf::11                      1                       # What write queue length does an incoming req see
system.mem_ctrls.wrQLenPdf::12                      1                       # What write queue length does an incoming req see
system.mem_ctrls.wrQLenPdf::13                      1                       # What write queue length does an incoming req see
system.mem_ctrls.wrQLenPdf::14                      1                       # What write queue length does an incoming req see
system.mem_ctrls.wrQLenPdf::15                   5460                       # What write queue length does an incoming req see
system.mem_ctrls.wrQLenPdf::16                   5468                       # What write queue length does an incoming req see
system.mem_ctrls.wrQLenPdf::17                 521197                       # What write queue length does an incoming req see
system.mem_ctrls.wrQLenPdf::18                 521257                       # What write queue length does an incoming req see
system.mem_ctrls.wrQLenPdf::19                 521256                       # What write queue length does an incoming req see
system.mem_ctrls.wrQLenPdf::20                 521255                       # What write queue length does an incoming req see
system.mem_ctrls.wrQLenPdf::21                 521256                       # What write queue length does an incoming req see
system.mem_ctrls.wrQLenPdf::22                 521255                       # What write queue length does an incoming req see
system.mem_ctrls.wrQLenPdf::23                 521254                       # What write queue length does an incoming req see
system.mem_ctrls.wrQLenPdf::24                 521254                       # What write queue length does an incoming req see
system.mem_ctrls.wrQLenPdf::25                 521261                       # What write queue length does an incoming req see
system.mem_ctrls.wrQLenPdf::26                 521256                       # What write queue length does an incoming req see
system.mem_ctrls.wrQLenPdf::27                 521276                       # What write queue length does an incoming req see
system.mem_ctrls.wrQLenPdf::28                 521492                       # What write queue length does an incoming req see
system.mem_ctrls.wrQLenPdf::29                 521255                       # What write queue length does an incoming req see
system.mem_ctrls.wrQLenPdf::30                 521256                       # What write queue length does an incoming req see
system.mem_ctrls.wrQLenPdf::31                 521254                       # What write queue length does an incoming req see
system.mem_ctrls.wrQLenPdf::32                 521254                       # What write queue length does an incoming req see
system.mem_ctrls.wrQLenPdf::33                      1                       # What write queue length does an incoming req see
system.mem_ctrls.wrQLenPdf::34                      0                       # What write queue length does an incoming req see
system.mem_ctrls.wrQLenPdf::35                      0                       # What write queue length does an incoming req see
system.mem_ctrls.wrQLenPdf::36                      0                       # What write queue length does an incoming req see
system.mem_ctrls.wrQLenPdf::37                      0                       # What write queue length does an incoming req see
system.mem_ctrls.wrQLenPdf::38                      0                       # What write queue length does an incoming req see
system.mem_ctrls.wrQLenPdf::39                      0                       # What write queue length does an incoming req see
system.mem_ctrls.wrQLenPdf::40                      0                       # What write queue length does an incoming req see
system.mem_ctrls.wrQLenPdf::41                      0                       # What write queue length does an incoming req see
system.mem_ctrls.wrQLenPdf::42                      0                       # What write queue length does an incoming req see
system.mem_ctrls.wrQLenPdf::43                      0                       # What write queue length does an incoming req see
system.mem_ctrls.wrQLenPdf::44                      0                       # What write queue length does an incoming req see
system.mem_ctrls.wrQLenPdf::45                      0                       # What write queue length does an incoming req see
system.mem_ctrls.wrQLenPdf::46                      0                       # What write queue length does an incoming req see
system.mem_ctrls.wrQLenPdf::47                      0                       # What write queue length does an incoming req see
system.mem_ctrls.wrQLenPdf::48                      0                       # What write queue length does an incoming req see
system.mem_ctrls.wrQLenPdf::49                      0                       # What write queue length does an incoming req see
system.mem_ctrls.wrQLenPdf::50                      0                       # What write queue length does an incoming req see
system.mem_ctrls.wrQLenPdf::51                      0                       # What write queue length does an incoming req see
system.mem_ctrls.wrQLenPdf::52                      0                       # What write queue length does an incoming req see
system.mem_ctrls.wrQLenPdf::53                      0                       # What write queue length does an incoming req see
system.mem_ctrls.wrQLenPdf::54                      0                       # What write queue length does an incoming req see
system.mem_ctrls.wrQLenPdf::55                      0                       # What write queue length does an incoming req see
system.mem_ctrls.wrQLenPdf::56                      0                       # What write queue length does an incoming req see
system.mem_ctrls.wrQLenPdf::57                      0                       # What write queue length does an incoming req see
system.mem_ctrls.wrQLenPdf::58                      0                       # What write queue length does an incoming req see
system.mem_ctrls.wrQLenPdf::59                      0                       # What write queue length does an incoming req see
system.mem_ctrls.wrQLenPdf::60                      0                       # What write queue length does an incoming req see
system.mem_ctrls.wrQLenPdf::61                      0                       # What write queue length does an incoming req see
system.mem_ctrls.wrQLenPdf::62                      0                       # What write queue length does an incoming req see
system.mem_ctrls.wrQLenPdf::63                      0                       # What write queue length does an incoming req see
system.mem_ctrls.bytesPerActivate::samples      2001921                       # Bytes accessed per row activation
system.mem_ctrls.bytesPerActivate::mean    800.075943                       # Bytes accessed per row activation
system.mem_ctrls.bytesPerActivate::gmean   627.758475                       # Bytes accessed per row activation
system.mem_ctrls.bytesPerActivate::stdev   349.815371                       # Bytes accessed per row activation
system.mem_ctrls.bytesPerActivate::0-127       209354     10.46%     10.46% # Bytes accessed per row activation
system.mem_ctrls.bytesPerActivate::128-255        81074      4.05%     14.51% # Bytes accessed per row activation
system.mem_ctrls.bytesPerActivate::256-383        54225      2.71%     17.22% # Bytes accessed per row activation
system.mem_ctrls.bytesPerActivate::384-511        92286      4.61%     21.83% # Bytes accessed per row activation
system.mem_ctrls.bytesPerActivate::512-639        91563      4.57%     26.40% # Bytes accessed per row activation
system.mem_ctrls.bytesPerActivate::640-767        54316      2.71%     29.11% # Bytes accessed per row activation
system.mem_ctrls.bytesPerActivate::768-895        71586      3.58%     32.69% # Bytes accessed per row activation
system.mem_ctrls.bytesPerActivate::896-1023        66624      3.33%     36.02% # Bytes accessed per row activation
system.mem_ctrls.bytesPerActivate::1024-1151      1280893     63.98%    100.00% # Bytes accessed per row activation
system.mem_ctrls.bytesPerActivate::total      2001921                       # Bytes accessed per row activation
system.mem_ctrls.rdPerTurnAround::samples       521254                       # Reads before turning the bus around for writes
system.mem_ctrls.rdPerTurnAround::mean      31.990488                       # Reads before turning the bus around for writes
system.mem_ctrls.rdPerTurnAround::gmean     31.908650                       # Reads before turning the bus around for writes
system.mem_ctrls.rdPerTurnAround::stdev     20.292597                       # Reads before turning the bus around for writes
system.mem_ctrls.rdPerTurnAround::0-511        521248    100.00%    100.00% # Reads before turning the bus around for writes
system.mem_ctrls.rdPerTurnAround::512-1023            1      0.00%    100.00% # Reads before turning the bus around for writes
system.mem_ctrls.rdPerTurnAround::2048-2559            1      0.00%    100.00% # Reads before turning the bus around for writes
system.mem_ctrls.rdPerTurnAround::3584-4095            1      0.00%    100.00% # Reads before turning the bus around for writes
system.mem_ctrls.rdPerTurnAround::4608-5119            1      0.00%    100.00% # Reads before turning the bus around for writes
system.mem_ctrls.rdPerTurnAround::7168-7679            1      0.00%    100.00% # Reads before turning the bus around for writes
system.mem_ctrls.rdPerTurnAround::10752-11263            1      0.00%    100.00% # Reads before turning the bus around for writes
system.mem_ctrls.rdPerTurnAround::total        521254                       # Reads before turning the bus around for writes
system.mem_ctrls.wrPerTurnAround::samples       521254                       # Writes before turning the bus around for reads
system.mem_ctrls.wrPerTurnAround::mean      16.021395                       # Writes before turning the bus around for reads
system.mem_ctrls.wrPerTurnAround::gmean     16.020139                       # Writes before turning the bus around for reads
system.mem_ctrls.wrPerTurnAround::stdev      0.208846                       # Writes before turning the bus around for reads
system.mem_ctrls.wrPerTurnAround::16           515786     98.95%     98.95% # Writes before turning the bus around for reads
system.mem_ctrls.wrPerTurnAround::17                9      0.00%     98.95% # Writes before turning the bus around for reads
system.mem_ctrls.wrPerTurnAround::18             5236      1.00%     99.96% # Writes before turning the bus around for reads
system.mem_ctrls.wrPerTurnAround::19              221      0.04%    100.00% # Writes before turning the bus around for reads
system.mem_ctrls.wrPerTurnAround::20                2      0.00%    100.00% # Writes before turning the bus around for reads
system.mem_ctrls.wrPerTurnAround::total        521254                       # Writes before turning the bus around for reads
system.mem_ctrls.totQLat                 122428291000                       # Total ticks spent queuing
system.mem_ctrls.totMemAccLat            435087766000                       # Total ticks spent from burst creation until serviced by the DRAM
system.mem_ctrls.totBusLat                83375860000                       # Total ticks spent in databus transfers
system.mem_ctrls.avgQLat                      7341.95                       # Average queueing delay per DRAM burst
system.mem_ctrls.avgBusLat                    5000.00                       # Average bus latency per DRAM burst
system.mem_ctrls.avgMemAccLat                26091.95                       # Average memory access latency per DRAM burst
system.mem_ctrls.avgRdBW                       472.18                       # Average DRAM read bandwidth in MiByte/s
system.mem_ctrls.avgWrBW                       236.47                       # Average achieved write bandwidth in MiByte/s
system.mem_ctrls.avgRdBWSys                    236.09                       # Average system read bandwidth in MiByte/s
system.mem_ctrls.avgWrBWSys                    235.38                       # Average system write bandwidth in MiByte/s
system.mem_ctrls.peakBW                      12800.00                       # Theoretical peak bandwidth in MiByte/s
system.mem_ctrls.busUtil                         5.54                       # Data bus utilization in percentage
system.mem_ctrls.busUtilRead                     3.69                       # Data bus utilization in percentage for reads
system.mem_ctrls.busUtilWrite                    1.85                       # Data bus utilization in percentage for writes
system.mem_ctrls.avgRdQLen                       1.00                       # Average read queue length when enqueuing
system.mem_ctrls.avgWrQLen                      25.34                       # Average write queue length when enqueuing
system.mem_ctrls.readRowHits                 15329529                       # Number of row buffer hits during reads
system.mem_ctrls.writeRowHits                 7694938                       # Number of row buffer hits during writes
system.mem_ctrls.readRowHitRate                 91.93                       # Row buffer hit rate for reads
system.mem_ctrls.writeRowHitRate                92.14                       # Row buffer hit rate for writes
system.mem_ctrls.avgGap                      67873.09                       # Average gap between requests
system.mem_ctrls.pageHitRate                    92.00                       # Row buffer hit rate, read and write combined
system.mem_ctrls_0.actEnergy               7573917960                       # Energy for activate commands per rank (pJ)
system.mem_ctrls_0.preEnergy               4132594125                       # Energy for precharge commands per rank (pJ)
system.mem_ctrls_0.readEnergy             65028303600                       # Energy for read commands per rank (pJ)
system.mem_ctrls_0.writeEnergy            27056993760                       # Energy for write commands per rank (pJ)
system.mem_ctrls_0.refreshEnergy         147624796800                       # Energy for refresh commands per rank (pJ)
system.mem_ctrls_0.actBackEnergy         608321790270                       # Energy for active background per rank (pJ)
system.mem_ctrls_0.preBackEnergy         822500132250                       # Energy for precharge background per rank (pJ)
system.mem_ctrls_0.totalEnergy           1682238528765                       # Total energy per rank (pJ)
system.mem_ctrls_0.averagePower            744.289804                       # Core power per rank (mW)
system.mem_ctrls_0.memoryStateTime::IDLE 1356792383000                       # Time in different power states
system.mem_ctrls_0.memoryStateTime::REF   75472800000                       # Time in different power states
system.mem_ctrls_0.memoryStateTime::PRE_PDN            0                       # Time in different power states
system.mem_ctrls_0.memoryStateTime::ACT  827927727000                       # Time in different power states
system.mem_ctrls_0.memoryStateTime::ACT_PDN            0                       # Time in different power states
system.mem_ctrls_1.actEnergy               7560604800                       # Energy for activate commands per rank (pJ)
system.mem_ctrls_1.preEnergy               4125330000                       # Energy for precharge commands per rank (pJ)
system.mem_ctrls_1.readEnergy             65038038000                       # Energy for read commands per rank (pJ)
system.mem_ctrls_1.writeEnergy            27058885920                       # Energy for write commands per rank (pJ)
system.mem_ctrls_1.refreshEnergy         147624796800                       # Energy for refresh commands per rank (pJ)
system.mem_ctrls_1.actBackEnergy         606224335050                       # Energy for active background per rank (pJ)
system.mem_ctrls_1.preBackEnergy         824340013500                       # Energy for precharge background per rank (pJ)
system.mem_ctrls_1.totalEnergy           1681972004070                       # Total energy per rank (pJ)
system.mem_ctrls_1.averagePower            744.171879                       # Core power per rank (mW)
system.mem_ctrls_1.memoryStateTime::IDLE 1359865681750                       # Time in different power states
system.mem_ctrls_1.memoryStateTime::REF   75472800000                       # Time in different power states
system.mem_ctrls_1.memoryStateTime::PRE_PDN            0                       # Time in different power states
system.mem_ctrls_1.memoryStateTime::ACT  824854442000                       # Time in different power states
system.mem_ctrls_1.memoryStateTime::ACT_PDN            0                       # Time in different power states
system.cpu_voltage_domain.voltage                   1                       # Voltage in Volts
system.cpu_clk_domain.clock                       500                       # Clock period in ticks
system.cpu.apic_clk_domain.clock                 8000                       # Clock period in ticks
system.cpu.workload.num_syscalls                  196                       # Number of system calls
system.cpu.numCycles                       4520400213                       # number of cpu cycles simulated
system.cpu.numWorkItemsStarted                      0                       # number of work items this cpu started
system.cpu.numWorkItemsCompleted                    0                       # number of work items this cpu completed
system.cpu.committedInsts                   500000000                       # Number of instructions committed
system.cpu.committedOps                     823366688                       # Number of ops (including micro ops) committed
system.cpu.num_int_alu_accesses             821415780                       # Number of integer alu accesses
system.cpu.num_fp_alu_accesses               66619254                       # Number of float alu accesses
system.cpu.num_func_calls                     5652773                       # number of times a function call or return occured
system.cpu.num_conditional_control_insts     57208851                       # number of instructions that are conditional controls
system.cpu.num_int_insts                    821415780                       # number of integer instructions
system.cpu.num_fp_insts                      66619254                       # number of float instructions
system.cpu.num_int_register_reads          1637209921                       # number of times the integer registers were read
system.cpu.num_int_register_writes          639871071                       # number of times the integer registers were written
system.cpu.num_fp_register_reads             66766844                       # number of times the floating registers were read
system.cpu.num_fp_register_writes              208042                       # number of times the floating registers were written
system.cpu.num_cc_register_reads            319714234                       # number of times the CC registers were read
system.cpu.num_cc_register_writes           287984020                       # number of times the CC registers were written
system.cpu.num_mem_refs                     271673944                       # number of memory refs
system.cpu.num_load_insts                   157213786                       # Number of load instructions
system.cpu.num_store_insts                  114460158                       # Number of store instructions
system.cpu.num_idle_cycles                          0                       # Number of idle cycles
system.cpu.num_busy_cycles                 4520400213                       # Number of busy cycles
system.cpu.not_idle_fraction                        1                       # Percentage of non-idle cycles
system.cpu.idle_fraction                            0                       # Percentage of idle cycles
system.cpu.Branches                          69678398                       # Number of branches fetched
system.cpu.op_class::No_OpClass                202233      0.02%      0.02% # Class of executed instruction
system.cpu.op_class::IntAlu                 550028809     66.80%     66.83% # Class of executed instruction
system.cpu.op_class::IntMult                   125092      0.02%     66.84% # Class of executed instruction
system.cpu.op_class::IntDiv                   1153479      0.14%     66.98% # Class of executed instruction
system.cpu.op_class::FloatAdd                  183131      0.02%     67.00% # Class of executed instruction
system.cpu.op_class::FloatCmp                       0      0.00%     67.00% # Class of executed instruction
system.cpu.op_class::FloatCvt                       0      0.00%     67.00% # Class of executed instruction
system.cpu.op_class::FloatMult                      0      0.00%     67.00% # Class of executed instruction
system.cpu.op_class::FloatDiv                       0      0.00%     67.00% # Class of executed instruction
system.cpu.op_class::FloatSqrt                      0      0.00%     67.00% # Class of executed instruction
system.cpu.op_class::SimdAdd                        0      0.00%     67.00% # Class of executed instruction
system.cpu.op_class::SimdAddAcc                     0      0.00%     67.00% # Class of executed instruction
system.cpu.op_class::SimdAlu                        0      0.00%     67.00% # Class of executed instruction
system.cpu.op_class::SimdCmp                        0      0.00%     67.00% # Class of executed instruction
system.cpu.op_class::SimdCvt                        0      0.00%     67.00% # Class of executed instruction
system.cpu.op_class::SimdMisc                       0      0.00%     67.00% # Class of executed instruction
system.cpu.op_class::SimdMult                       0      0.00%     67.00% # Class of executed instruction
system.cpu.op_class::SimdMultAcc                    0      0.00%     67.00% # Class of executed instruction
system.cpu.op_class::SimdShift                      0      0.00%     67.00% # Class of executed instruction
system.cpu.op_class::SimdShiftAcc                   0      0.00%     67.00% # Class of executed instruction
system.cpu.op_class::SimdSqrt                       0      0.00%     67.00% # Class of executed instruction
system.cpu.op_class::SimdFloatAdd                   0      0.00%     67.00% # Class of executed instruction
system.cpu.op_class::SimdFloatAlu                   0      0.00%     67.00% # Class of executed instruction
system.cpu.op_class::SimdFloatCmp                   0      0.00%     67.00% # Class of executed instruction
system.cpu.op_class::SimdFloatCvt                   0      0.00%     67.00% # Class of executed instruction
system.cpu.op_class::SimdFloatDiv                   0      0.00%     67.00% # Class of executed instruction
system.cpu.op_class::SimdFloatMisc                  0      0.00%     67.00% # Class of executed instruction
system.cpu.op_class::SimdFloatMult                  0      0.00%     67.00% # Class of executed instruction
system.cpu.op_class::SimdFloatMultAcc               0      0.00%     67.00% # Class of executed instruction
system.cpu.op_class::SimdFloatSqrt                  0      0.00%     67.00% # Class of executed instruction
system.cpu.op_class::MemRead                157213786     19.09%     86.10% # Class of executed instruction
system.cpu.op_class::MemWrite               114460158     13.90%    100.00% # Class of executed instruction
system.cpu.op_class::IprAccess                      0      0.00%    100.00% # Class of executed instruction
system.cpu.op_class::InstPrefetch                   0      0.00%    100.00% # Class of executed instruction
system.cpu.op_class::total                  823366688                       # Class of executed instruction
system.cpu.dcache.tags.replacements          16687910                       # number of replacements
system.cpu.dcache.tags.tagsinuse          4092.726335                       # Cycle average of tags in use
system.cpu.dcache.tags.total_refs           254982554                       # Total number of references to valid blocks.
system.cpu.dcache.tags.sampled_refs          16692006                       # Sample count of references to valid blocks.
system.cpu.dcache.tags.avg_refs             15.275729                       # Average number of references to valid blocks.
system.cpu.dcache.tags.warmup_cycle        7676781500                       # Cycle when the warmup percentage was hit.
system.cpu.dcache.tags.occ_blocks::cpu.data  4092.726335                       # Average occupied blocks per requestor
system.cpu.dcache.tags.occ_percent::cpu.data     0.999201                       # Average percentage of cache occupancy
system.cpu.dcache.tags.occ_percent::total     0.999201                       # Average percentage of cache occupancy
system.cpu.dcache.tags.occ_task_id_blocks::1024         4096                       # Occupied blocks per task id
system.cpu.dcache.tags.age_task_id_blocks_1024::1           13                       # Occupied blocks per task id
system.cpu.dcache.tags.age_task_id_blocks_1024::2          100                       # Occupied blocks per task id
system.cpu.dcache.tags.age_task_id_blocks_1024::3         1036                       # Occupied blocks per task id
system.cpu.dcache.tags.age_task_id_blocks_1024::4         2947                       # Occupied blocks per task id
system.cpu.dcache.tags.occ_task_id_percent::1024            1                       # Percentage of cache occupancy per task id
system.cpu.dcache.tags.tag_accesses        2190088486                       # Number of tag accesses
system.cpu.dcache.tags.data_accesses       2190088486                       # Number of data accesses
system.cpu.dcache.ReadReq_hits::cpu.data    157119043                       # number of ReadReq hits
system.cpu.dcache.ReadReq_hits::total       157119043                       # number of ReadReq hits
system.cpu.dcache.WriteReq_hits::cpu.data     97863511                       # number of WriteReq hits
system.cpu.dcache.WriteReq_hits::total       97863511                       # number of WriteReq hits
system.cpu.dcache.demand_hits::cpu.data     254982554                       # number of demand (read+write) hits
system.cpu.dcache.demand_hits::total        254982554                       # number of demand (read+write) hits
system.cpu.dcache.overall_hits::cpu.data    254982554                       # number of overall hits
system.cpu.dcache.overall_hits::total       254982554                       # number of overall hits
system.cpu.dcache.ReadReq_misses::cpu.data        95347                       # number of ReadReq misses
system.cpu.dcache.ReadReq_misses::total         95347                       # number of ReadReq misses
system.cpu.dcache.WriteReq_misses::cpu.data     16596659                       # number of WriteReq misses
system.cpu.dcache.WriteReq_misses::total     16596659                       # number of WriteReq misses
system.cpu.dcache.demand_misses::cpu.data     16692006                       # number of demand (read+write) misses
system.cpu.dcache.demand_misses::total       16692006                       # number of demand (read+write) misses
system.cpu.dcache.overall_misses::cpu.data     16692006                       # number of overall misses
system.cpu.dcache.overall_misses::total      16692006                       # number of overall misses
system.cpu.dcache.ReadReq_miss_latency::cpu.data   7579726500                       # number of ReadReq miss cycles
system.cpu.dcache.ReadReq_miss_latency::total   7579726500                       # number of ReadReq miss cycles
system.cpu.dcache.WriteReq_miss_latency::cpu.data 1298925853500                       # number of WriteReq miss cycles
system.cpu.dcache.WriteReq_miss_latency::total 1298925853500                       # number of WriteReq miss cycles
system.cpu.dcache.demand_miss_latency::cpu.data 1306505580000                       # number of demand (read+write) miss cycles
system.cpu.dcache.demand_miss_latency::total 1306505580000                       # number of demand (read+write) miss cycles
system.cpu.dcache.overall_miss_latency::cpu.data 1306505580000                       # number of overall miss cycles
system.cpu.dcache.overall_miss_latency::total 1306505580000                       # number of overall miss cycles
system.cpu.dcache.ReadReq_accesses::cpu.data    157214390                       # number of ReadReq accesses(hits+misses)
system.cpu.dcache.ReadReq_accesses::total    157214390                       # number of ReadReq accesses(hits+misses)
system.cpu.dcache.WriteReq_accesses::cpu.data    114460170                       # number of WriteReq accesses(hits+misses)
system.cpu.dcache.WriteReq_accesses::total    114460170                       # number of WriteReq accesses(hits+misses)
system.cpu.dcache.demand_accesses::cpu.data    271674560                       # number of demand (read+write) accesses
system.cpu.dcache.demand_accesses::total    271674560                       # number of demand (read+write) accesses
system.cpu.dcache.overall_accesses::cpu.data    271674560                       # number of overall (read+write) accesses
system.cpu.dcache.overall_accesses::total    271674560                       # number of overall (read+write) accesses
system.cpu.dcache.ReadReq_miss_rate::cpu.data     0.000606                       # miss rate for ReadReq accesses
system.cpu.dcache.ReadReq_miss_rate::total     0.000606                       # miss rate for ReadReq accesses
system.cpu.dcache.WriteReq_miss_rate::cpu.data     0.144999                       # miss rate for WriteReq accesses
system.cpu.dcache.WriteReq_miss_rate::total     0.144999                       # miss rate for WriteReq accesses
system.cpu.dcache.demand_miss_rate::cpu.data     0.061441                       # miss rate for demand accesses
system.cpu.dcache.demand_miss_rate::total     0.061441                       # miss rate for demand accesses
system.cpu.dcache.overall_miss_rate::cpu.data     0.061441                       # miss rate for overall accesses
system.cpu.dcache.overall_miss_rate::total     0.061441                       # miss rate for overall accesses
system.cpu.dcache.ReadReq_avg_miss_latency::cpu.data 79496.224317                       # average ReadReq miss latency
system.cpu.dcache.ReadReq_avg_miss_latency::total 79496.224317                       # average ReadReq miss latency
system.cpu.dcache.WriteReq_avg_miss_latency::cpu.data 78264.297260                       # average WriteReq miss latency
system.cpu.dcache.WriteReq_avg_miss_latency::total 78264.297260                       # average WriteReq miss latency
system.cpu.dcache.demand_avg_miss_latency::cpu.data 78271.334194                       # average overall miss latency
system.cpu.dcache.demand_avg_miss_latency::total 78271.334194                       # average overall miss latency
system.cpu.dcache.overall_avg_miss_latency::cpu.data 78271.334194                       # average overall miss latency
system.cpu.dcache.overall_avg_miss_latency::total 78271.334194                       # average overall miss latency
system.cpu.dcache.blocked_cycles::no_mshrs            0                       # number of cycles access was blocked
system.cpu.dcache.blocked_cycles::no_targets            0                       # number of cycles access was blocked
system.cpu.dcache.blocked::no_mshrs                 0                       # number of cycles access was blocked
system.cpu.dcache.blocked::no_targets               0                       # number of cycles access was blocked
system.cpu.dcache.avg_blocked_cycles::no_mshrs          nan                       # average number of cycles each access was blocked
system.cpu.dcache.avg_blocked_cycles::no_targets          nan                       # average number of cycles each access was blocked
system.cpu.dcache.fast_writes                       0                       # number of fast writes performed
system.cpu.dcache.cache_copies                      0                       # number of cache copies performed
system.cpu.dcache.writebacks::writebacks     16667172                       # number of writebacks
system.cpu.dcache.writebacks::total          16667172                       # number of writebacks
system.cpu.dcache.ReadReq_mshr_misses::cpu.data        95347                       # number of ReadReq MSHR misses
system.cpu.dcache.ReadReq_mshr_misses::total        95347                       # number of ReadReq MSHR misses
system.cpu.dcache.WriteReq_mshr_misses::cpu.data     16596659                       # number of WriteReq MSHR misses
system.cpu.dcache.WriteReq_mshr_misses::total     16596659                       # number of WriteReq MSHR misses
system.cpu.dcache.demand_mshr_misses::cpu.data     16692006                       # number of demand (read+write) MSHR misses
system.cpu.dcache.demand_mshr_misses::total     16692006                       # number of demand (read+write) MSHR misses
system.cpu.dcache.overall_mshr_misses::cpu.data     16692006                       # number of overall MSHR misses
system.cpu.dcache.overall_mshr_misses::total     16692006                       # number of overall MSHR misses
system.cpu.dcache.ReadReq_mshr_miss_latency::cpu.data   7484379500                       # number of ReadReq MSHR miss cycles
system.cpu.dcache.ReadReq_mshr_miss_latency::total   7484379500                       # number of ReadReq MSHR miss cycles
system.cpu.dcache.WriteReq_mshr_miss_latency::cpu.data 1282329194500                       # number of WriteReq MSHR miss cycles
system.cpu.dcache.WriteReq_mshr_miss_latency::total 1282329194500                       # number of WriteReq MSHR miss cycles
system.cpu.dcache.demand_mshr_miss_latency::cpu.data 1289813574000                       # number of demand (read+write) MSHR miss cycles
system.cpu.dcache.demand_mshr_miss_latency::total 1289813574000                       # number of demand (read+write) MSHR miss cycles
system.cpu.dcache.overall_mshr_miss_latency::cpu.data 1289813574000                       # number of overall MSHR miss cycles
system.cpu.dcache.overall_mshr_miss_latency::total 1289813574000                       # number of overall MSHR miss cycles
system.cpu.dcache.ReadReq_mshr_miss_rate::cpu.data     0.000606                       # mshr miss rate for ReadReq accesses
system.cpu.dcache.ReadReq_mshr_miss_rate::total     0.000606                       # mshr miss rate for ReadReq accesses
system.cpu.dcache.WriteReq_mshr_miss_rate::cpu.data     0.144999                       # mshr miss rate for WriteReq accesses
system.cpu.dcache.WriteReq_mshr_miss_rate::total     0.144999                       # mshr miss rate for WriteReq accesses
system.cpu.dcache.demand_mshr_miss_rate::cpu.data     0.061441                       # mshr miss rate for demand accesses
system.cpu.dcache.demand_mshr_miss_rate::total     0.061441                       # mshr miss rate for demand accesses
system.cpu.dcache.overall_mshr_miss_rate::cpu.data     0.061441                       # mshr miss rate for overall accesses
system.cpu.dcache.overall_mshr_miss_rate::total     0.061441                       # mshr miss rate for overall accesses
system.cpu.dcache.ReadReq_avg_mshr_miss_latency::cpu.data 78496.224317                       # average ReadReq mshr miss latency
system.cpu.dcache.ReadReq_avg_mshr_miss_latency::total 78496.224317                       # average ReadReq mshr miss latency
system.cpu.dcache.WriteReq_avg_mshr_miss_latency::cpu.data 77264.297260                       # average WriteReq mshr miss latency
system.cpu.dcache.WriteReq_avg_mshr_miss_latency::total 77264.297260                       # average WriteReq mshr miss latency
system.cpu.dcache.demand_avg_mshr_miss_latency::cpu.data 77271.334194                       # average overall mshr miss latency
system.cpu.dcache.demand_avg_mshr_miss_latency::total 77271.334194                       # average overall mshr miss latency
system.cpu.dcache.overall_avg_mshr_miss_latency::cpu.data 77271.334194                       # average overall mshr miss latency
system.cpu.dcache.overall_avg_mshr_miss_latency::total 77271.334194                       # average overall mshr miss latency
system.cpu.dcache.no_allocate_misses                0                       # Number of misses that were no-allocate
system.cpu.dtb_walker_cache.tags.replacements            0                       # number of replacements
system.cpu.dtb_walker_cache.tags.tagsinuse            0                       # Cycle average of tags in use
system.cpu.dtb_walker_cache.tags.total_refs            0                       # Total number of references to valid blocks.
system.cpu.dtb_walker_cache.tags.sampled_refs            0                       # Sample count of references to valid blocks.
system.cpu.dtb_walker_cache.tags.avg_refs          nan                       # Average number of references to valid blocks.
system.cpu.dtb_walker_cache.tags.warmup_cycle            0                       # Cycle when the warmup percentage was hit.
system.cpu.dtb_walker_cache.tags.tag_accesses            0                       # Number of tag accesses
system.cpu.dtb_walker_cache.tags.data_accesses            0                       # Number of data accesses
system.cpu.dtb_walker_cache.blocked_cycles::no_mshrs            0                       # number of cycles access was blocked
system.cpu.dtb_walker_cache.blocked_cycles::no_targets            0                       # number of cycles access was blocked
system.cpu.dtb_walker_cache.blocked::no_mshrs            0                       # number of cycles access was blocked
system.cpu.dtb_walker_cache.blocked::no_targets            0                       # number of cycles access was blocked
system.cpu.dtb_walker_cache.avg_blocked_cycles::no_mshrs          nan                       # average number of cycles each access was blocked
system.cpu.dtb_walker_cache.avg_blocked_cycles::no_targets          nan                       # average number of cycles each access was blocked
system.cpu.dtb_walker_cache.fast_writes             0                       # number of fast writes performed
system.cpu.dtb_walker_cache.cache_copies            0                       # number of cache copies performed
system.cpu.dtb_walker_cache.no_allocate_misses            0                       # Number of misses that were no-allocate
system.cpu.icache.tags.replacements           1917289                       # number of replacements
system.cpu.icache.tags.tagsinuse          1149.955595                       # Cycle average of tags in use
system.cpu.icache.tags.total_refs           673434618                       # Total number of references to valid blocks.
system.cpu.icache.tags.sampled_refs           1919044                       # Sample count of references to valid blocks.
system.cpu.icache.tags.avg_refs            350.921927                       # Average number of references to valid blocks.
system.cpu.icache.tags.warmup_cycle                 0                       # Cycle when the warmup percentage was hit.
system.cpu.icache.tags.occ_blocks::cpu.inst  1149.955595                       # Average occupied blocks per requestor
system.cpu.icache.tags.occ_percent::cpu.inst     0.561502                       # Average percentage of cache occupancy
system.cpu.icache.tags.occ_percent::total     0.561502                       # Average percentage of cache occupancy
system.cpu.icache.tags.occ_task_id_blocks::1024         1755                       # Occupied blocks per task id
system.cpu.icache.tags.age_task_id_blocks_1024::0           12                       # Occupied blocks per task id
system.cpu.icache.tags.age_task_id_blocks_1024::1           80                       # Occupied blocks per task id
system.cpu.icache.tags.age_task_id_blocks_1024::2           29                       # Occupied blocks per task id
system.cpu.icache.tags.age_task_id_blocks_1024::3           35                       # Occupied blocks per task id
system.cpu.icache.tags.age_task_id_blocks_1024::4         1599                       # Occupied blocks per task id
system.cpu.icache.tags.occ_task_id_percent::1024     0.856934                       # Percentage of cache occupancy per task id
system.cpu.icache.tags.tag_accesses         677272706                       # Number of tag accesses
system.cpu.icache.tags.data_accesses        677272706                       # Number of data accesses
system.cpu.icache.ReadReq_hits::cpu.inst    673434618                       # number of ReadReq hits
system.cpu.icache.ReadReq_hits::total       673434618                       # number of ReadReq hits
system.cpu.icache.demand_hits::cpu.inst     673434618                       # number of demand (read+write) hits
system.cpu.icache.demand_hits::total        673434618                       # number of demand (read+write) hits
system.cpu.icache.overall_hits::cpu.inst    673434618                       # number of overall hits
system.cpu.icache.overall_hits::total       673434618                       # number of overall hits
system.cpu.icache.ReadReq_misses::cpu.inst      1919044                       # number of ReadReq misses
system.cpu.icache.ReadReq_misses::total       1919044                       # number of ReadReq misses
system.cpu.icache.demand_misses::cpu.inst      1919044                       # number of demand (read+write) misses
system.cpu.icache.demand_misses::total        1919044                       # number of demand (read+write) misses
system.cpu.icache.overall_misses::cpu.inst      1919044                       # number of overall misses
system.cpu.icache.overall_misses::total       1919044                       # number of overall misses
system.cpu.icache.ReadReq_miss_latency::cpu.inst  25277773000                       # number of ReadReq miss cycles
system.cpu.icache.ReadReq_miss_latency::total  25277773000                       # number of ReadReq miss cycles
system.cpu.icache.demand_miss_latency::cpu.inst  25277773000                       # number of demand (read+write) miss cycles
system.cpu.icache.demand_miss_latency::total  25277773000                       # number of demand (read+write) miss cycles
system.cpu.icache.overall_miss_latency::cpu.inst  25277773000                       # number of overall miss cycles
system.cpu.icache.overall_miss_latency::total  25277773000                       # number of overall miss cycles
system.cpu.icache.ReadReq_accesses::cpu.inst    675353662                       # number of ReadReq accesses(hits+misses)
system.cpu.icache.ReadReq_accesses::total    675353662                       # number of ReadReq accesses(hits+misses)
system.cpu.icache.demand_accesses::cpu.inst    675353662                       # number of demand (read+write) accesses
system.cpu.icache.demand_accesses::total    675353662                       # number of demand (read+write) accesses
system.cpu.icache.overall_accesses::cpu.inst    675353662                       # number of overall (read+write) accesses
system.cpu.icache.overall_accesses::total    675353662                       # number of overall (read+write) accesses
system.cpu.icache.ReadReq_miss_rate::cpu.inst     0.002842                       # miss rate for ReadReq accesses
system.cpu.icache.ReadReq_miss_rate::total     0.002842                       # miss rate for ReadReq accesses
system.cpu.icache.demand_miss_rate::cpu.inst     0.002842                       # miss rate for demand accesses
system.cpu.icache.demand_miss_rate::total     0.002842                       # miss rate for demand accesses
system.cpu.icache.overall_miss_rate::cpu.inst     0.002842                       # miss rate for overall accesses
system.cpu.icache.overall_miss_rate::total     0.002842                       # miss rate for overall accesses
system.cpu.icache.ReadReq_avg_miss_latency::cpu.inst 13172.065362                       # average ReadReq miss latency
system.cpu.icache.ReadReq_avg_miss_latency::total 13172.065362                       # average ReadReq miss latency
system.cpu.icache.demand_avg_miss_latency::cpu.inst 13172.065362                       # average overall miss latency
system.cpu.icache.demand_avg_miss_latency::total 13172.065362                       # average overall miss latency
system.cpu.icache.overall_avg_miss_latency::cpu.inst 13172.065362                       # average overall miss latency
system.cpu.icache.overall_avg_miss_latency::total 13172.065362                       # average overall miss latency
system.cpu.icache.blocked_cycles::no_mshrs            0                       # number of cycles access was blocked
system.cpu.icache.blocked_cycles::no_targets            0                       # number of cycles access was blocked
system.cpu.icache.blocked::no_mshrs                 0                       # number of cycles access was blocked
system.cpu.icache.blocked::no_targets               0                       # number of cycles access was blocked
system.cpu.icache.avg_blocked_cycles::no_mshrs          nan                       # average number of cycles each access was blocked
system.cpu.icache.avg_blocked_cycles::no_targets          nan                       # average number of cycles each access was blocked
system.cpu.icache.fast_writes                       0                       # number of fast writes performed
system.cpu.icache.cache_copies                      0                       # number of cache copies performed
system.cpu.icache.writebacks::writebacks      1917289                       # number of writebacks
system.cpu.icache.writebacks::total           1917289                       # number of writebacks
system.cpu.icache.ReadReq_mshr_misses::cpu.inst      1919044                       # number of ReadReq MSHR misses
system.cpu.icache.ReadReq_mshr_misses::total      1919044                       # number of ReadReq MSHR misses
system.cpu.icache.demand_mshr_misses::cpu.inst      1919044                       # number of demand (read+write) MSHR misses
system.cpu.icache.demand_mshr_misses::total      1919044                       # number of demand (read+write) MSHR misses
system.cpu.icache.overall_mshr_misses::cpu.inst      1919044                       # number of overall MSHR misses
system.cpu.icache.overall_mshr_misses::total      1919044                       # number of overall MSHR misses
system.cpu.icache.ReadReq_mshr_miss_latency::cpu.inst  23358729000                       # number of ReadReq MSHR miss cycles
system.cpu.icache.ReadReq_mshr_miss_latency::total  23358729000                       # number of ReadReq MSHR miss cycles
system.cpu.icache.demand_mshr_miss_latency::cpu.inst  23358729000                       # number of demand (read+write) MSHR miss cycles
system.cpu.icache.demand_mshr_miss_latency::total  23358729000                       # number of demand (read+write) MSHR miss cycles
system.cpu.icache.overall_mshr_miss_latency::cpu.inst  23358729000                       # number of overall MSHR miss cycles
system.cpu.icache.overall_mshr_miss_latency::total  23358729000                       # number of overall MSHR miss cycles
system.cpu.icache.ReadReq_mshr_miss_rate::cpu.inst     0.002842                       # mshr miss rate for ReadReq accesses
system.cpu.icache.ReadReq_mshr_miss_rate::total     0.002842                       # mshr miss rate for ReadReq accesses
system.cpu.icache.demand_mshr_miss_rate::cpu.inst     0.002842                       # mshr miss rate for demand accesses
system.cpu.icache.demand_mshr_miss_rate::total     0.002842                       # mshr miss rate for demand accesses
system.cpu.icache.overall_mshr_miss_rate::cpu.inst     0.002842                       # mshr miss rate for overall accesses
system.cpu.icache.overall_mshr_miss_rate::total     0.002842                       # mshr miss rate for overall accesses
system.cpu.icache.ReadReq_avg_mshr_miss_latency::cpu.inst 12172.065362                       # average ReadReq mshr miss latency
system.cpu.icache.ReadReq_avg_mshr_miss_latency::total 12172.065362                       # average ReadReq mshr miss latency
system.cpu.icache.demand_avg_mshr_miss_latency::cpu.inst 12172.065362                       # average overall mshr miss latency
system.cpu.icache.demand_avg_mshr_miss_latency::total 12172.065362                       # average overall mshr miss latency
system.cpu.icache.overall_avg_mshr_miss_latency::cpu.inst 12172.065362                       # average overall mshr miss latency
system.cpu.icache.overall_avg_mshr_miss_latency::total 12172.065362                       # average overall mshr miss latency
system.cpu.icache.no_allocate_misses                0                       # Number of misses that were no-allocate
system.cpu.itb_walker_cache.tags.replacements            0                       # number of replacements
system.cpu.itb_walker_cache.tags.tagsinuse            0                       # Cycle average of tags in use
system.cpu.itb_walker_cache.tags.total_refs            0                       # Total number of references to valid blocks.
system.cpu.itb_walker_cache.tags.sampled_refs            0                       # Sample count of references to valid blocks.
system.cpu.itb_walker_cache.tags.avg_refs          nan                       # Average number of references to valid blocks.
system.cpu.itb_walker_cache.tags.warmup_cycle            0                       # Cycle when the warmup percentage was hit.
system.cpu.itb_walker_cache.tags.tag_accesses            0                       # Number of tag accesses
system.cpu.itb_walker_cache.tags.data_accesses            0                       # Number of data accesses
system.cpu.itb_walker_cache.blocked_cycles::no_mshrs            0                       # number of cycles access was blocked
system.cpu.itb_walker_cache.blocked_cycles::no_targets            0                       # number of cycles access was blocked
system.cpu.itb_walker_cache.blocked::no_mshrs            0                       # number of cycles access was blocked
system.cpu.itb_walker_cache.blocked::no_targets            0                       # number of cycles access was blocked
system.cpu.itb_walker_cache.avg_blocked_cycles::no_mshrs          nan                       # average number of cycles each access was blocked
system.cpu.itb_walker_cache.avg_blocked_cycles::no_targets          nan                       # average number of cycles each access was blocked
system.cpu.itb_walker_cache.fast_writes             0                       # number of fast writes performed
system.cpu.itb_walker_cache.cache_copies            0                       # number of cache copies performed
system.cpu.itb_walker_cache.no_allocate_misses            0                       # Number of misses that were no-allocate
system.l2.tags.replacements                  16656194                       # number of replacements
system.l2.tags.tagsinuse                 29772.354027                       # Cycle average of tags in use
system.l2.tags.total_refs                     3925734                       # Total number of references to valid blocks.
system.l2.tags.sampled_refs                  16688420                       # Sample count of references to valid blocks.
system.l2.tags.avg_refs                      0.235237                       # Average number of references to valid blocks.
system.l2.tags.warmup_cycle                         0                       # Cycle when the warmup percentage was hit.
system.l2.tags.occ_blocks::writebacks    23622.320190                       # Average occupied blocks per requestor
system.l2.tags.occ_blocks::cpu.inst        286.539463                       # Average occupied blocks per requestor
system.l2.tags.occ_blocks::cpu.data       5863.494374                       # Average occupied blocks per requestor
system.l2.tags.occ_percent::writebacks       0.720896                       # Average percentage of cache occupancy
system.l2.tags.occ_percent::cpu.inst         0.008744                       # Average percentage of cache occupancy
system.l2.tags.occ_percent::cpu.data         0.178940                       # Average percentage of cache occupancy
system.l2.tags.occ_percent::total            0.908580                       # Average percentage of cache occupancy
system.l2.tags.occ_task_id_blocks::1024         32226                       # Occupied blocks per task id
system.l2.tags.age_task_id_blocks_1024::1           11                       # Occupied blocks per task id
system.l2.tags.age_task_id_blocks_1024::2          102                       # Occupied blocks per task id
system.l2.tags.age_task_id_blocks_1024::3         1043                       # Occupied blocks per task id
system.l2.tags.age_task_id_blocks_1024::4        31070                       # Occupied blocks per task id
system.l2.tags.occ_task_id_percent::1024     0.983459                       # Percentage of cache occupancy per task id
system.l2.tags.tag_accesses                  70501328                       # Number of tag accesses
system.l2.tags.data_accesses                 70501328                       # Number of data accesses
system.l2.WritebackDirty_hits::writebacks     16667172                       # number of WritebackDirty hits
system.l2.WritebackDirty_hits::total         16667172                       # number of WritebackDirty hits
system.l2.WritebackClean_hits::writebacks      1917289                       # number of WritebackClean hits
system.l2.WritebackClean_hits::total          1917289                       # number of WritebackClean hits
system.l2.ReadExReq_hits::cpu.data               8066                       # number of ReadExReq hits
system.l2.ReadExReq_hits::total                  8066                       # number of ReadExReq hits
system.l2.ReadCleanReq_hits::cpu.inst         1914359                       # number of ReadCleanReq hits
system.l2.ReadCleanReq_hits::total            1914359                       # number of ReadCleanReq hits
system.l2.ReadSharedReq_hits::cpu.data          13423                       # number of ReadSharedReq hits
system.l2.ReadSharedReq_hits::total             13423                       # number of ReadSharedReq hits
system.l2.demand_hits::cpu.inst               1914359                       # number of demand (read+write) hits
system.l2.demand_hits::cpu.data                 21489                       # number of demand (read+write) hits
system.l2.demand_hits::total                  1935848                       # number of demand (read+write) hits
system.l2.overall_hits::cpu.inst              1914359                       # number of overall hits
system.l2.overall_hits::cpu.data                21489                       # number of overall hits
system.l2.overall_hits::total                 1935848                       # number of overall hits
system.l2.ReadExReq_misses::cpu.data         16588593                       # number of ReadExReq misses
system.l2.ReadExReq_misses::total            16588593                       # number of ReadExReq misses
system.l2.ReadCleanReq_misses::cpu.inst          4685                       # number of ReadCleanReq misses
system.l2.ReadCleanReq_misses::total             4685                       # number of ReadCleanReq misses
system.l2.ReadSharedReq_misses::cpu.data        81924                       # number of ReadSharedReq misses
system.l2.ReadSharedReq_misses::total           81924                       # number of ReadSharedReq misses
system.l2.demand_misses::cpu.inst                4685                       # number of demand (read+write) misses
system.l2.demand_misses::cpu.data            16670517                       # number of demand (read+write) misses
system.l2.demand_misses::total               16675202                       # number of demand (read+write) misses
system.l2.overall_misses::cpu.inst               4685                       # number of overall misses
system.l2.overall_misses::cpu.data           16670517                       # number of overall misses
system.l2.overall_misses::total              16675202                       # number of overall misses
system.l2.ReadExReq_miss_latency::cpu.data 1257349513000                       # number of ReadExReq miss cycles
system.l2.ReadExReq_miss_latency::total  1257349513000                       # number of ReadExReq miss cycles
system.l2.ReadCleanReq_miss_latency::cpu.inst    379393500                       # number of ReadCleanReq miss cycles
system.l2.ReadCleanReq_miss_latency::total    379393500                       # number of ReadCleanReq miss cycles
system.l2.ReadSharedReq_miss_latency::cpu.data   7200417000                       # number of ReadSharedReq miss cycles
system.l2.ReadSharedReq_miss_latency::total   7200417000                       # number of ReadSharedReq miss cycles
system.l2.demand_miss_latency::cpu.inst     379393500                       # number of demand (read+write) miss cycles
system.l2.demand_miss_latency::cpu.data  1264549930000                       # number of demand (read+write) miss cycles
system.l2.demand_miss_latency::total     1264929323500                       # number of demand (read+write) miss cycles
system.l2.overall_miss_latency::cpu.inst    379393500                       # number of overall miss cycles
system.l2.overall_miss_latency::cpu.data 1264549930000                       # number of overall miss cycles
system.l2.overall_miss_latency::total    1264929323500                       # number of overall miss cycles
system.l2.WritebackDirty_accesses::writebacks     16667172                       # number of WritebackDirty accesses(hits+misses)
system.l2.WritebackDirty_accesses::total     16667172                       # number of WritebackDirty accesses(hits+misses)
system.l2.WritebackClean_accesses::writebacks      1917289                       # number of WritebackClean accesses(hits+misses)
system.l2.WritebackClean_accesses::total      1917289                       # number of WritebackClean accesses(hits+misses)
system.l2.ReadExReq_accesses::cpu.data       16596659                       # number of ReadExReq accesses(hits+misses)
system.l2.ReadExReq_accesses::total          16596659                       # number of ReadExReq accesses(hits+misses)
system.l2.ReadCleanReq_accesses::cpu.inst      1919044                       # number of ReadCleanReq accesses(hits+misses)
system.l2.ReadCleanReq_accesses::total        1919044                       # number of ReadCleanReq accesses(hits+misses)
system.l2.ReadSharedReq_accesses::cpu.data        95347                       # number of ReadSharedReq accesses(hits+misses)
system.l2.ReadSharedReq_accesses::total         95347                       # number of ReadSharedReq accesses(hits+misses)
system.l2.demand_accesses::cpu.inst           1919044                       # number of demand (read+write) accesses
system.l2.demand_accesses::cpu.data          16692006                       # number of demand (read+write) accesses
system.l2.demand_accesses::total             18611050                       # number of demand (read+write) accesses
system.l2.overall_accesses::cpu.inst          1919044                       # number of overall (read+write) accesses
system.l2.overall_accesses::cpu.data         16692006                       # number of overall (read+write) accesses
system.l2.overall_accesses::total            18611050                       # number of overall (read+write) accesses
system.l2.ReadExReq_miss_rate::cpu.data      0.999514                       # miss rate for ReadExReq accesses
system.l2.ReadExReq_miss_rate::total         0.999514                       # miss rate for ReadExReq accesses
system.l2.ReadCleanReq_miss_rate::cpu.inst     0.002441                       # miss rate for ReadCleanReq accesses
system.l2.ReadCleanReq_miss_rate::total      0.002441                       # miss rate for ReadCleanReq accesses
system.l2.ReadSharedReq_miss_rate::cpu.data     0.859219                       # miss rate for ReadSharedReq accesses
system.l2.ReadSharedReq_miss_rate::total     0.859219                       # miss rate for ReadSharedReq accesses
system.l2.demand_miss_rate::cpu.inst         0.002441                       # miss rate for demand accesses
system.l2.demand_miss_rate::cpu.data         0.998713                       # miss rate for demand accesses
system.l2.demand_miss_rate::total            0.895984                       # miss rate for demand accesses
system.l2.overall_miss_rate::cpu.inst        0.002441                       # miss rate for overall accesses
system.l2.overall_miss_rate::cpu.data        0.998713                       # miss rate for overall accesses
system.l2.overall_miss_rate::total           0.895984                       # miss rate for overall accesses
system.l2.ReadExReq_avg_miss_latency::cpu.data 75796.031225                       # average ReadExReq miss latency
system.l2.ReadExReq_avg_miss_latency::total 75796.031225                       # average ReadExReq miss latency
system.l2.ReadCleanReq_avg_miss_latency::cpu.inst 80980.469584                       # average ReadCleanReq miss latency
system.l2.ReadCleanReq_avg_miss_latency::total 80980.469584                       # average ReadCleanReq miss latency
system.l2.ReadSharedReq_avg_miss_latency::cpu.data 87891.423759                       # average ReadSharedReq miss latency
system.l2.ReadSharedReq_avg_miss_latency::total 87891.423759                       # average ReadSharedReq miss latency
system.l2.demand_avg_miss_latency::cpu.inst 80980.469584                       # average overall miss latency
system.l2.demand_avg_miss_latency::cpu.data 75855.471669                       # average overall miss latency
system.l2.demand_avg_miss_latency::total 75856.911568                       # average overall miss latency
system.l2.overall_avg_miss_latency::cpu.inst 80980.469584                       # average overall miss latency
system.l2.overall_avg_miss_latency::cpu.data 75855.471669                       # average overall miss latency
system.l2.overall_avg_miss_latency::total 75856.911568                       # average overall miss latency
system.l2.blocked_cycles::no_mshrs                  0                       # number of cycles access was blocked
system.l2.blocked_cycles::no_targets                0                       # number of cycles access was blocked
system.l2.blocked::no_mshrs                         0                       # number of cycles access was blocked
system.l2.blocked::no_targets                       0                       # number of cycles access was blocked
system.l2.avg_blocked_cycles::no_mshrs            nan                       # average number of cycles each access was blocked
system.l2.avg_blocked_cycles::no_targets          nan                       # average number of cycles each access was blocked
system.l2.fast_writes                               0                       # number of fast writes performed
system.l2.cache_copies                              0                       # number of cache copies performed
system.l2.writebacks::writebacks             16624991                       # number of writebacks
system.l2.writebacks::total                  16624991                       # number of writebacks
system.l2.CleanEvict_mshr_misses::writebacks         4359                       # number of CleanEvict MSHR misses
system.l2.CleanEvict_mshr_misses::total          4359                       # number of CleanEvict MSHR misses
system.l2.ReadExReq_mshr_misses::cpu.data     16588593                       # number of ReadExReq MSHR misses
system.l2.ReadExReq_mshr_misses::total       16588593                       # number of ReadExReq MSHR misses
system.l2.ReadCleanReq_mshr_misses::cpu.inst         4685                       # number of ReadCleanReq MSHR misses
system.l2.ReadCleanReq_mshr_misses::total         4685                       # number of ReadCleanReq MSHR misses
system.l2.ReadSharedReq_mshr_misses::cpu.data        81924                       # number of ReadSharedReq MSHR misses
system.l2.ReadSharedReq_mshr_misses::total        81924                       # number of ReadSharedReq MSHR misses
system.l2.demand_mshr_misses::cpu.inst           4685                       # number of demand (read+write) MSHR misses
system.l2.demand_mshr_misses::cpu.data       16670517                       # number of demand (read+write) MSHR misses
system.l2.demand_mshr_misses::total          16675202                       # number of demand (read+write) MSHR misses
system.l2.overall_mshr_misses::cpu.inst          4685                       # number of overall MSHR misses
system.l2.overall_mshr_misses::cpu.data      16670517                       # number of overall MSHR misses
system.l2.overall_mshr_misses::total         16675202                       # number of overall MSHR misses
system.l2.ReadExReq_mshr_miss_latency::cpu.data 1091463583000                       # number of ReadExReq MSHR miss cycles
system.l2.ReadExReq_mshr_miss_latency::total 1091463583000                       # number of ReadExReq MSHR miss cycles
system.l2.ReadCleanReq_mshr_miss_latency::cpu.inst    332543500                       # number of ReadCleanReq MSHR miss cycles
system.l2.ReadCleanReq_mshr_miss_latency::total    332543500                       # number of ReadCleanReq MSHR miss cycles
system.l2.ReadSharedReq_mshr_miss_latency::cpu.data   6381177000                       # number of ReadSharedReq MSHR miss cycles
system.l2.ReadSharedReq_mshr_miss_latency::total   6381177000                       # number of ReadSharedReq MSHR miss cycles
system.l2.demand_mshr_miss_latency::cpu.inst    332543500                       # number of demand (read+write) MSHR miss cycles
system.l2.demand_mshr_miss_latency::cpu.data 1097844760000                       # number of demand (read+write) MSHR miss cycles
system.l2.demand_mshr_miss_latency::total 1098177303500                       # number of demand (read+write) MSHR miss cycles
system.l2.overall_mshr_miss_latency::cpu.inst    332543500                       # number of overall MSHR miss cycles
system.l2.overall_mshr_miss_latency::cpu.data 1097844760000                       # number of overall MSHR miss cycles
system.l2.overall_mshr_miss_latency::total 1098177303500                       # number of overall MSHR miss cycles
system.l2.CleanEvict_mshr_miss_rate::writebacks          inf                       # mshr miss rate for CleanEvict accesses
system.l2.CleanEvict_mshr_miss_rate::total          inf                       # mshr miss rate for CleanEvict accesses
system.l2.ReadExReq_mshr_miss_rate::cpu.data     0.999514                       # mshr miss rate for ReadExReq accesses
system.l2.ReadExReq_mshr_miss_rate::total     0.999514                       # mshr miss rate for ReadExReq accesses
system.l2.ReadCleanReq_mshr_miss_rate::cpu.inst     0.002441                       # mshr miss rate for ReadCleanReq accesses
system.l2.ReadCleanReq_mshr_miss_rate::total     0.002441                       # mshr miss rate for ReadCleanReq accesses
system.l2.ReadSharedReq_mshr_miss_rate::cpu.data     0.859219                       # mshr miss rate for ReadSharedReq accesses
system.l2.ReadSharedReq_mshr_miss_rate::total     0.859219                       # mshr miss rate for ReadSharedReq accesses
system.l2.demand_mshr_miss_rate::cpu.inst     0.002441                       # mshr miss rate for demand accesses
system.l2.demand_mshr_miss_rate::cpu.data     0.998713                       # mshr miss rate for demand accesses
system.l2.demand_mshr_miss_rate::total       0.895984                       # mshr miss rate for demand accesses
system.l2.overall_mshr_miss_rate::cpu.inst     0.002441                       # mshr miss rate for overall accesses
system.l2.overall_mshr_miss_rate::cpu.data     0.998713                       # mshr miss rate for overall accesses
system.l2.overall_mshr_miss_rate::total      0.895984                       # mshr miss rate for overall accesses
system.l2.ReadExReq_avg_mshr_miss_latency::cpu.data 65796.031225                       # average ReadExReq mshr miss latency
system.l2.ReadExReq_avg_mshr_miss_latency::total 65796.031225                       # average ReadExReq mshr miss latency
system.l2.ReadCleanReq_avg_mshr_miss_latency::cpu.inst 70980.469584                       # average ReadCleanReq mshr miss latency
system.l2.ReadCleanReq_avg_mshr_miss_latency::total 70980.469584                       # average ReadCleanReq mshr miss latency
system.l2.ReadSharedReq_avg_mshr_miss_latency::cpu.data 77891.423759                       # average ReadSharedReq mshr miss latency
system.l2.ReadSharedReq_avg_mshr_miss_latency::total 77891.423759                       # average ReadSharedReq mshr miss latency
system.l2.demand_avg_mshr_miss_latency::cpu.inst 70980.469584                       # average overall mshr miss latency
system.l2.demand_avg_mshr_miss_latency::cpu.data 65855.471669                       # average overall mshr miss latency
system.l2.demand_avg_mshr_miss_latency::total 65856.911568                       # average overall mshr miss latency
system.l2.overall_avg_mshr_miss_latency::cpu.inst 70980.469584                       # average overall mshr miss latency
system.l2.overall_avg_mshr_miss_latency::cpu.data 65855.471669                       # average overall mshr miss latency
system.l2.overall_avg_mshr_miss_latency::total 65856.911568                       # average overall mshr miss latency
system.l2.no_allocate_misses                        0                       # Number of misses that were no-allocate
system.membus.trans_dist::ReadResp              86609                       # Transaction distribution
system.membus.trans_dist::WritebackDirty     16624991                       # Transaction distribution
system.membus.trans_dist::CleanEvict            15265                       # Transaction distribution
system.membus.trans_dist::ReadExReq          16588593                       # Transaction distribution
system.membus.trans_dist::ReadExResp         16588593                       # Transaction distribution
system.membus.trans_dist::ReadSharedReq         86609                       # Transaction distribution
system.membus.pkt_count_system.l2.mem_side::system.mem_ctrls.port     49990660                       # Packet count per connected master and slave (bytes)
system.membus.pkt_count_system.l2.mem_side::total     49990660                       # Packet count per connected master and slave (bytes)
system.membus.pkt_count::total               49990660                       # Packet count per connected master and slave (bytes)
system.membus.pkt_size_system.l2.mem_side::system.mem_ctrls.port   1065606176                       # Cumulative packet size per connected master and slave (bytes)
system.membus.pkt_size_system.l2.mem_side::total   1065606176                       # Cumulative packet size per connected master and slave (bytes)
system.membus.pkt_size::total              1065606176                       # Cumulative packet size per connected master and slave (bytes)
system.membus.snoops                                0                       # Total snoops (count)
system.membus.snoop_fanout::samples          33315458                       # Request fanout histogram
system.membus.snoop_fanout::mean                    0                       # Request fanout histogram
system.membus.snoop_fanout::stdev                   0                       # Request fanout histogram
system.membus.snoop_fanout::underflows              0      0.00%      0.00% # Request fanout histogram
system.membus.snoop_fanout::0                33315458    100.00%    100.00% # Request fanout histogram
system.membus.snoop_fanout::1                       0      0.00%    100.00% # Request fanout histogram
system.membus.snoop_fanout::overflows               0      0.00%    100.00% # Request fanout histogram
system.membus.snoop_fanout::min_value               0                       # Request fanout histogram
system.membus.snoop_fanout::max_value               0                       # Request fanout histogram
system.membus.snoop_fanout::total            33315458                       # Request fanout histogram
system.membus.reqLayer2.occupancy         66565456000                       # Layer occupancy (ticks)
system.membus.reqLayer2.utilization               2.9                       # Layer utilization (%)
system.membus.respLayer1.occupancy        54444754000                       # Layer occupancy (ticks)
system.membus.respLayer1.utilization              2.4                       # Layer utilization (%)
system.tol2bus.snoop_filter.tot_requests     37216249                       # Total number of requests made to the snoop filter.
system.tol2bus.snoop_filter.hit_single_requests     18605199                       # Number of requests hitting in the snoop filter with a single holder of the requested data.
system.tol2bus.snoop_filter.hit_multi_requests            0                       # Number of requests hitting in the snoop filter with multiple (>1) holders of the requested data.
system.tol2bus.snoop_filter.tot_snoops          20297                       # Total number of snoops made to the snoop filter.
system.tol2bus.snoop_filter.hit_single_snoops        20297                       # Number of snoops hitting in the snoop filter with a single holder of the requested data.
system.tol2bus.snoop_filter.hit_multi_snoops            0                       # Number of snoops hitting in the snoop filter with multiple (>1) holders of the requested data.
system.tol2bus.trans_dist::ReadResp           2014391                       # Transaction distribution
system.tol2bus.trans_dist::WritebackDirty     33292163                       # Transaction distribution
system.tol2bus.trans_dist::WritebackClean      1917289                       # Transaction distribution
system.tol2bus.trans_dist::CleanEvict           51941                       # Transaction distribution
system.tol2bus.trans_dist::ReadExReq         16596659                       # Transaction distribution
system.tol2bus.trans_dist::ReadExResp        16596659                       # Transaction distribution
system.tol2bus.trans_dist::ReadCleanReq       1919044                       # Transaction distribution
system.tol2bus.trans_dist::ReadSharedReq        95347                       # Transaction distribution
system.tol2bus.pkt_count_system.cpu.icache.mem_side::system.l2.cpu_side      5755377                       # Packet count per connected master and slave (bytes)
system.tol2bus.pkt_count_system.cpu.dcache.mem_side::system.l2.cpu_side     50071922                       # Packet count per connected master and slave (bytes)
system.tol2bus.pkt_count::total              55827299                       # Packet count per connected master and slave (bytes)
system.tol2bus.pkt_size_system.cpu.icache.mem_side::system.l2.cpu_side    122762656                       # Cumulative packet size per connected master and slave (bytes)
system.tol2bus.pkt_size_system.cpu.dcache.mem_side::system.l2.cpu_side   1067493696                       # Cumulative packet size per connected master and slave (bytes)
system.tol2bus.pkt_size::total             1190256352                       # Cumulative packet size per connected master and slave (bytes)
system.tol2bus.snoops                        16656194                       # Total snoops (count)
system.tol2bus.snoop_fanout::samples         35267244                       # Request fanout histogram
system.tol2bus.snoop_fanout::mean            0.000576                       # Request fanout histogram
system.tol2bus.snoop_fanout::stdev           0.023983                       # Request fanout histogram
system.tol2bus.snoop_fanout::underflows             0      0.00%      0.00% # Request fanout histogram
system.tol2bus.snoop_fanout::0               35246947     99.94%     99.94% # Request fanout histogram
system.tol2bus.snoop_fanout::1                  20297      0.06%    100.00% # Request fanout histogram
system.tol2bus.snoop_fanout::2                      0      0.00%    100.00% # Request fanout histogram
system.tol2bus.snoop_fanout::3                      0      0.00%    100.00% # Request fanout histogram
system.tol2bus.snoop_fanout::4                      0      0.00%    100.00% # Request fanout histogram
system.tol2bus.snoop_fanout::overflows              0      0.00%    100.00% # Request fanout histogram
system.tol2bus.snoop_fanout::min_value              0                       # Request fanout histogram
system.tol2bus.snoop_fanout::max_value              1                       # Request fanout histogram
system.tol2bus.snoop_fanout::total           35267244                       # Request fanout histogram
system.tol2bus.reqLayer0.occupancy        27900355000                       # Layer occupancy (ticks)
system.tol2bus.reqLayer0.utilization              1.2                       # Layer utilization (%)
system.tol2bus.respLayer0.occupancy        1919044000                       # Layer occupancy (ticks)
system.tol2bus.respLayer0.utilization             0.1                       # Layer utilization (%)
system.tol2bus.respLayer1.occupancy       16692006000                       # Layer occupancy (ticks)
system.tol2bus.respLayer1.utilization             0.7                       # Layer utilization (%)

---------- End Simulation Statistics   ----------
