
---------- Begin Simulation Statistics ----------
sim_seconds                                  1.642289                       # Number of seconds simulated
sim_ticks                                1642288794500                       # Number of ticks simulated
final_tick                               1642288794500                       # Number of ticks from beginning of simulation (restored from checkpoints and never reset)
sim_freq                                 1000000000000                       # Frequency of simulated ticks
host_inst_rate                                 200313                       # Simulator instruction rate (inst/s)
host_op_rate                                   329863                       # Simulator op (including micro ops) rate (op/s)
host_tick_rate                              657945208                       # Simulator tick rate (ticks/s)
host_mem_usage                                 834040                       # Number of bytes of host memory used
host_seconds                                  2496.09                       # Real time elapsed on the host
sim_insts                                   500000000                       # Number of instructions simulated
sim_ops                                     823366688                       # Number of ops (including micro ops) simulated
system.voltage_domain.voltage                       1                       # Voltage in Volts
system.clk_domain.clock                          1000                       # Clock period in ticks
system.mem_ctrls.bytes_read::cpu.inst          102528                       # Number of bytes read from this memory
system.mem_ctrls.bytes_read::cpu.data       537548096                       # Number of bytes read from this memory
system.mem_ctrls.bytes_read::total          537650624                       # Number of bytes read from this memory
system.mem_ctrls.bytes_inst_read::cpu.inst       102528                       # Number of instructions bytes read from this memory
system.mem_ctrls.bytes_inst_read::total        102528                       # Number of instructions bytes read from this memory
system.mem_ctrls.bytes_written::writebacks    534519424                       # Number of bytes written to this memory
system.mem_ctrls.bytes_written::total       534519424                       # Number of bytes written to this memory
system.mem_ctrls.num_reads::cpu.inst             1602                       # Number of read requests responded to by this memory
system.mem_ctrls.num_reads::cpu.data          8399189                       # Number of read requests responded to by this memory
system.mem_ctrls.num_reads::total             8400791                       # Number of read requests responded to by this memory
system.mem_ctrls.num_writes::writebacks       8351866                       # Number of write requests responded to by this memory
system.mem_ctrls.num_writes::total            8351866                       # Number of write requests responded to by this memory
system.mem_ctrls.bw_read::cpu.inst              62430                       # Total read bandwidth from this memory (bytes/s)
system.mem_ctrls.bw_read::cpu.data          327316424                       # Total read bandwidth from this memory (bytes/s)
system.mem_ctrls.bw_read::total             327378854                       # Total read bandwidth from this memory (bytes/s)
system.mem_ctrls.bw_inst_read::cpu.inst         62430                       # Instruction read bandwidth from this memory (bytes/s)
system.mem_ctrls.bw_inst_read::total            62430                       # Instruction read bandwidth from this memory (bytes/s)
system.mem_ctrls.bw_write::writebacks       325472247                       # Write bandwidth from this memory (bytes/s)
system.mem_ctrls.bw_write::total            325472247                       # Write bandwidth from this memory (bytes/s)
system.mem_ctrls.bw_total::writebacks       325472247                       # Total bandwidth to/from this memory (bytes/s)
system.mem_ctrls.bw_total::cpu.inst             62430                       # Total bandwidth to/from this memory (bytes/s)
system.mem_ctrls.bw_total::cpu.data         327316424                       # Total bandwidth to/from this memory (bytes/s)
system.mem_ctrls.bw_total::total            652851101                       # Total bandwidth to/from this memory (bytes/s)
system.mem_ctrls.readReqs                     8400791                       # Number of read requests accepted
system.mem_ctrls.writeReqs                    8351866                       # Number of write requests accepted
system.mem_ctrls.readBursts                   8400791                       # Number of DRAM read bursts, including those serviced by the write queue
system.mem_ctrls.writeBursts                  8351866                       # Number of DRAM write bursts, including those merged in the write queue
system.mem_ctrls.bytesReadDRAM              537480832                       # Total number of bytes read from DRAM
system.mem_ctrls.bytesReadWrQ                  169792                       # Total number of bytes read from write queue
system.mem_ctrls.bytesWritten               534475968                       # Total number of bytes written to DRAM
system.mem_ctrls.bytesReadSys               537650624                       # Total read bytes from the system interface side
system.mem_ctrls.bytesWrittenSys            534519424                       # Total written bytes from the system interface side
system.mem_ctrls.servicedByWrQ                   2653                       # Number of DRAM read bursts serviced by the write queue
system.mem_ctrls.mergedWrBursts                   653                       # Number of DRAM write bursts merged with an existing one
system.mem_ctrls.neitherReadNorWriteReqs        30972                       # Number of requests that are neither read nor write
system.mem_ctrls.perBankRdBursts::0            523542                       # Per bank write bursts
system.mem_ctrls.perBankRdBursts::1            523360                       # Per bank write bursts
system.mem_ctrls.perBankRdBursts::2            523658                       # Per bank write bursts
system.mem_ctrls.perBankRdBursts::3            526163                       # Per bank write bursts
system.mem_ctrls.perBankRdBursts::4            537466                       # Per bank write bursts
system.mem_ctrls.perBankRdBursts::5            524336                       # Per bank write bursts
system.mem_ctrls.perBankRdBursts::6            523678                       # Per bank write bursts
system.mem_ctrls.perBankRdBursts::7            524040                       # Per bank write bursts
system.mem_ctrls.perBankRdBursts::8            523304                       # Per bank write bursts
system.mem_ctrls.perBankRdBursts::9            523875                       # Per bank write bursts
system.mem_ctrls.perBankRdBursts::10           523945                       # Per bank write bursts
system.mem_ctrls.perBankRdBursts::11           524288                       # Per bank write bursts
system.mem_ctrls.perBankRdBursts::12           524157                       # Per bank write bursts
system.mem_ctrls.perBankRdBursts::13           524403                       # Per bank write bursts
system.mem_ctrls.perBankRdBursts::14           523930                       # Per bank write bursts
system.mem_ctrls.perBankRdBursts::15           523993                       # Per bank write bursts
system.mem_ctrls.perBankWrBursts::0            521616                       # Per bank write bursts
system.mem_ctrls.perBankWrBursts::1            521414                       # Per bank write bursts
system.mem_ctrls.perBankWrBursts::2            521688                       # Per bank write bursts
system.mem_ctrls.perBankWrBursts::3            523857                       # Per bank write bursts
system.mem_ctrls.perBankWrBursts::4            523404                       # Per bank write bursts
system.mem_ctrls.perBankWrBursts::5            522024                       # Per bank write bursts
system.mem_ctrls.perBankWrBursts::6            521523                       # Per bank write bursts
system.mem_ctrls.perBankWrBursts::7            521733                       # Per bank write bursts
system.mem_ctrls.perBankWrBursts::8            521394                       # Per bank write bursts
system.mem_ctrls.perBankWrBursts::9            521565                       # Per bank write bursts
system.mem_ctrls.perBankWrBursts::10           521694                       # Per bank write bursts
system.mem_ctrls.perBankWrBursts::11           521848                       # Per bank write bursts
system.mem_ctrls.perBankWrBursts::12           521907                       # Per bank write bursts
system.mem_ctrls.perBankWrBursts::13           521996                       # Per bank write bursts
system.mem_ctrls.perBankWrBursts::14           521781                       # Per bank write bursts
system.mem_ctrls.perBankWrBursts::15           521743                       # Per bank write bursts
system.mem_ctrls.numRdRetry                         0                       # Number of times read queue was full causing retry
system.mem_ctrls.numWrRetry                         0                       # Number of times write queue was full causing retry
system.mem_ctrls.totGap                  1642275852500                       # Total gap between requests
system.mem_ctrls.readPktSize::0                     0                       # Read request sizes (log2)
system.mem_ctrls.readPktSize::1                     0                       # Read request sizes (log2)
system.mem_ctrls.readPktSize::2                     0                       # Read request sizes (log2)
system.mem_ctrls.readPktSize::3                     0                       # Read request sizes (log2)
system.mem_ctrls.readPktSize::4                     0                       # Read request sizes (log2)
system.mem_ctrls.readPktSize::5                     0                       # Read request sizes (log2)
system.mem_ctrls.readPktSize::6               8400791                       # Read request sizes (log2)
system.mem_ctrls.writePktSize::0                    0                       # Write request sizes (log2)
system.mem_ctrls.writePktSize::1                    0                       # Write request sizes (log2)
system.mem_ctrls.writePktSize::2                    0                       # Write request sizes (log2)
system.mem_ctrls.writePktSize::3                    0                       # Write request sizes (log2)
system.mem_ctrls.writePktSize::4                    0                       # Write request sizes (log2)
system.mem_ctrls.writePktSize::5                    0                       # Write request sizes (log2)
system.mem_ctrls.writePktSize::6              8351866                       # Write request sizes (log2)
system.mem_ctrls.rdQLenPdf::0                 8398137                       # What read queue length does an incoming req see
system.mem_ctrls.rdQLenPdf::1                       1                       # What read queue length does an incoming req see
system.mem_ctrls.rdQLenPdf::2                       0                       # What read queue length does an incoming req see
system.mem_ctrls.rdQLenPdf::3                       0                       # What read queue length does an incoming req see
system.mem_ctrls.rdQLenPdf::4                       0                       # What read queue length does an incoming req see
system.mem_ctrls.rdQLenPdf::5                       0                       # What read queue length does an incoming req see
system.mem_ctrls.rdQLenPdf::6                       0                       # What read queue length does an incoming req see
system.mem_ctrls.rdQLenPdf::7                       0                       # What read queue length does an incoming req see
system.mem_ctrls.rdQLenPdf::8                       0                       # What read queue length does an incoming req see
system.mem_ctrls.rdQLenPdf::9                       0                       # What read queue length does an incoming req see
system.mem_ctrls.rdQLenPdf::10                      0                       # What read queue length does an incoming req see
system.mem_ctrls.rdQLenPdf::11                      0                       # What read queue length does an incoming req see
system.mem_ctrls.rdQLenPdf::12                      0                       # What read queue length does an incoming req see
system.mem_ctrls.rdQLenPdf::13                      0                       # What read queue length does an incoming req see
system.mem_ctrls.rdQLenPdf::14                      0                       # What read queue length does an incoming req see
system.mem_ctrls.rdQLenPdf::15                      0                       # What read queue length does an incoming req see
system.mem_ctrls.rdQLenPdf::16                      0                       # What read queue length does an incoming req see
system.mem_ctrls.rdQLenPdf::17                      0                       # What read queue length does an incoming req see
system.mem_ctrls.rdQLenPdf::18                      0                       # What read queue length does an incoming req see
system.mem_ctrls.rdQLenPdf::19                      0                       # What read queue length does an incoming req see
system.mem_ctrls.rdQLenPdf::20                      0                       # What read queue length does an incoming req see
system.mem_ctrls.rdQLenPdf::21                      0                       # What read queue length does an incoming req see
system.mem_ctrls.rdQLenPdf::22                      0                       # What read queue length does an incoming req see
system.mem_ctrls.rdQLenPdf::23                      0                       # What read queue length does an incoming req see
system.mem_ctrls.rdQLenPdf::24                      0                       # What read queue length does an incoming req see
system.mem_ctrls.rdQLenPdf::25                      0                       # What read queue length does an incoming req see
system.mem_ctrls.rdQLenPdf::26                      0                       # What read queue length does an incoming req see
system.mem_ctrls.rdQLenPdf::27                      0                       # What read queue length does an incoming req see
system.mem_ctrls.rdQLenPdf::28                      0                       # What read queue length does an incoming req see
system.mem_ctrls.rdQLenPdf::29                      0                       # What read queue length does an incoming req see
system.mem_ctrls.rdQLenPdf::30                      0                       # What read queue length does an incoming req see
system.mem_ctrls.rdQLenPdf::31                      0                       # What read queue length does an incoming req see
system.mem_ctrls.wrQLenPdf::0                       1                       # What write queue length does an incoming req see
system.mem_ctrls.wrQLenPdf::1                       1                       # What write queue length does an incoming req see
system.mem_ctrls.wrQLenPdf::2                       1                       # What write queue length does an incoming req see
system.mem_ctrls.wrQLenPdf::3                       1                       # What write queue length does an incoming req see
system.mem_ctrls.wrQLenPdf::4                       1                       # What write queue length does an incoming req see
system.mem_ctrls.wrQLenPdf::5                       1                       # What write queue length does an incoming req see
system.mem_ctrls.wrQLenPdf::6                       1                       # What write queue length does an incoming req see
system.mem_ctrls.wrQLenPdf::7                       1                       # What write queue length does an incoming req see
system.mem_ctrls.wrQLenPdf::8                       1                       # What write queue length does an incoming req see
system.mem_ctrls.wrQLenPdf::9                       1                       # What write queue length does an incoming req see
system.mem_ctrls.wrQLenPdf::10                      1                       # What write queue length does an incoming req see
system.mem_ctrls.wrQLenPdf::11                      1                       # What write queue length does an incoming req see
system.mem_ctrls.wrQLenPdf::12                      1                       # What write queue length does an incoming req see
system.mem_ctrls.wrQLenPdf::13                      1                       # What write queue length does an incoming req see
system.mem_ctrls.wrQLenPdf::14                      1                       # What write queue length does an incoming req see
system.mem_ctrls.wrQLenPdf::15                   6900                       # What write queue length does an incoming req see
system.mem_ctrls.wrQLenPdf::16                   6914                       # What write queue length does an incoming req see
system.mem_ctrls.wrQLenPdf::17                 518902                       # What write queue length does an incoming req see
system.mem_ctrls.wrQLenPdf::18                 521010                       # What write queue length does an incoming req see
system.mem_ctrls.wrQLenPdf::19                 521011                       # What write queue length does an incoming req see
system.mem_ctrls.wrQLenPdf::20                 521009                       # What write queue length does an incoming req see
system.mem_ctrls.wrQLenPdf::21                 521006                       # What write queue length does an incoming req see
system.mem_ctrls.wrQLenPdf::22                 521008                       # What write queue length does an incoming req see
system.mem_ctrls.wrQLenPdf::23                 521006                       # What write queue length does an incoming req see
system.mem_ctrls.wrQLenPdf::24                 521008                       # What write queue length does an incoming req see
system.mem_ctrls.wrQLenPdf::25                 524353                       # What write queue length does an incoming req see
system.mem_ctrls.wrQLenPdf::26                 521003                       # What write queue length does an incoming req see
system.mem_ctrls.wrQLenPdf::27                 521006                       # What write queue length does an incoming req see
system.mem_ctrls.wrQLenPdf::28                 521049                       # What write queue length does an incoming req see
system.mem_ctrls.wrQLenPdf::29                 521003                       # What write queue length does an incoming req see
system.mem_ctrls.wrQLenPdf::30                 521004                       # What write queue length does an incoming req see
system.mem_ctrls.wrQLenPdf::31                 521003                       # What write queue length does an incoming req see
system.mem_ctrls.wrQLenPdf::32                 521003                       # What write queue length does an incoming req see
system.mem_ctrls.wrQLenPdf::33                      0                       # What write queue length does an incoming req see
system.mem_ctrls.wrQLenPdf::34                      0                       # What write queue length does an incoming req see
system.mem_ctrls.wrQLenPdf::35                      0                       # What write queue length does an incoming req see
system.mem_ctrls.wrQLenPdf::36                      0                       # What write queue length does an incoming req see
system.mem_ctrls.wrQLenPdf::37                      0                       # What write queue length does an incoming req see
system.mem_ctrls.wrQLenPdf::38                      0                       # What write queue length does an incoming req see
system.mem_ctrls.wrQLenPdf::39                      0                       # What write queue length does an incoming req see
system.mem_ctrls.wrQLenPdf::40                      0                       # What write queue length does an incoming req see
system.mem_ctrls.wrQLenPdf::41                      0                       # What write queue length does an incoming req see
system.mem_ctrls.wrQLenPdf::42                      0                       # What write queue length does an incoming req see
system.mem_ctrls.wrQLenPdf::43                      0                       # What write queue length does an incoming req see
system.mem_ctrls.wrQLenPdf::44                      0                       # What write queue length does an incoming req see
system.mem_ctrls.wrQLenPdf::45                      0                       # What write queue length does an incoming req see
system.mem_ctrls.wrQLenPdf::46                      0                       # What write queue length does an incoming req see
system.mem_ctrls.wrQLenPdf::47                      0                       # What write queue length does an incoming req see
system.mem_ctrls.wrQLenPdf::48                      0                       # What write queue length does an incoming req see
system.mem_ctrls.wrQLenPdf::49                      0                       # What write queue length does an incoming req see
system.mem_ctrls.wrQLenPdf::50                      0                       # What write queue length does an incoming req see
system.mem_ctrls.wrQLenPdf::51                      0                       # What write queue length does an incoming req see
system.mem_ctrls.wrQLenPdf::52                      0                       # What write queue length does an incoming req see
system.mem_ctrls.wrQLenPdf::53                      0                       # What write queue length does an incoming req see
system.mem_ctrls.wrQLenPdf::54                      0                       # What write queue length does an incoming req see
system.mem_ctrls.wrQLenPdf::55                      0                       # What write queue length does an incoming req see
system.mem_ctrls.wrQLenPdf::56                      0                       # What write queue length does an incoming req see
system.mem_ctrls.wrQLenPdf::57                      0                       # What write queue length does an incoming req see
system.mem_ctrls.wrQLenPdf::58                      0                       # What write queue length does an incoming req see
system.mem_ctrls.wrQLenPdf::59                      0                       # What write queue length does an incoming req see
system.mem_ctrls.wrQLenPdf::60                      0                       # What write queue length does an incoming req see
system.mem_ctrls.wrQLenPdf::61                      0                       # What write queue length does an incoming req see
system.mem_ctrls.wrQLenPdf::62                      0                       # What write queue length does an incoming req see
system.mem_ctrls.wrQLenPdf::63                      0                       # What write queue length does an incoming req see
system.mem_ctrls.bytesPerActivate::samples      1424974                       # Bytes accessed per row activation
system.mem_ctrls.bytesPerActivate::mean    752.264111                       # Bytes accessed per row activation
system.mem_ctrls.bytesPerActivate::gmean   552.336920                       # Bytes accessed per row activation
system.mem_ctrls.bytesPerActivate::stdev   377.531794                       # Bytes accessed per row activation
system.mem_ctrls.bytesPerActivate::0-127       203311     14.27%     14.27% # Bytes accessed per row activation
system.mem_ctrls.bytesPerActivate::128-255        58717      4.12%     18.39% # Bytes accessed per row activation
system.mem_ctrls.bytesPerActivate::256-383        62436      4.38%     22.77% # Bytes accessed per row activation
system.mem_ctrls.bytesPerActivate::384-511        56992      4.00%     26.77% # Bytes accessed per row activation
system.mem_ctrls.bytesPerActivate::512-639        44872      3.15%     29.92% # Bytes accessed per row activation
system.mem_ctrls.bytesPerActivate::640-767        69891      4.90%     34.82% # Bytes accessed per row activation
system.mem_ctrls.bytesPerActivate::768-895        42352      2.97%     37.80% # Bytes accessed per row activation
system.mem_ctrls.bytesPerActivate::896-1023        54790      3.84%     41.64% # Bytes accessed per row activation
system.mem_ctrls.bytesPerActivate::1024-1151       831613     58.36%    100.00% # Bytes accessed per row activation
system.mem_ctrls.bytesPerActivate::total      1424974                       # Bytes accessed per row activation
system.mem_ctrls.rdPerTurnAround::samples       521003                       # Reads before turning the bus around for writes
system.mem_ctrls.rdPerTurnAround::mean      16.119149                       # Reads before turning the bus around for writes
system.mem_ctrls.rdPerTurnAround::gmean     16.070061                       # Reads before turning the bus around for writes
system.mem_ctrls.rdPerTurnAround::stdev     10.479017                       # Reads before turning the bus around for writes
system.mem_ctrls.rdPerTurnAround::0-255        520997    100.00%    100.00% # Reads before turning the bus around for writes
system.mem_ctrls.rdPerTurnAround::256-511            1      0.00%    100.00% # Reads before turning the bus around for writes
system.mem_ctrls.rdPerTurnAround::1024-1279            1      0.00%    100.00% # Reads before turning the bus around for writes
system.mem_ctrls.rdPerTurnAround::1792-2047            1      0.00%    100.00% # Reads before turning the bus around for writes
system.mem_ctrls.rdPerTurnAround::2304-2559            1      0.00%    100.00% # Reads before turning the bus around for writes
system.mem_ctrls.rdPerTurnAround::3584-3839            1      0.00%    100.00% # Reads before turning the bus around for writes
system.mem_ctrls.rdPerTurnAround::5376-5631            1      0.00%    100.00% # Reads before turning the bus around for writes
system.mem_ctrls.rdPerTurnAround::total        521003                       # Reads before turning the bus around for writes
system.mem_ctrls.wrPerTurnAround::samples       521003                       # Writes before turning the bus around for reads
system.mem_ctrls.wrPerTurnAround::mean      16.029057                       # Writes before turning the bus around for reads
system.mem_ctrls.wrPerTurnAround::gmean     16.027207                       # Writes before turning the bus around for reads
system.mem_ctrls.wrPerTurnAround::stdev      0.254695                       # Writes before turning the bus around for reads
system.mem_ctrls.wrPerTurnAround::16           514089     98.67%     98.67% # Writes before turning the bus around for reads
system.mem_ctrls.wrPerTurnAround::17               12      0.00%     98.68% # Writes before turning the bus around for reads
system.mem_ctrls.wrPerTurnAround::18             5580      1.07%     99.75% # Writes before turning the bus around for reads
system.mem_ctrls.wrPerTurnAround::19             1321      0.25%    100.00% # Writes before turning the bus around for reads
system.mem_ctrls.wrPerTurnAround::20                1      0.00%    100.00% # Writes before turning the bus around for reads
system.mem_ctrls.wrPerTurnAround::total        521003                       # Writes before turning the bus around for reads
system.mem_ctrls.totQLat                  88558716500                       # Total ticks spent queuing
system.mem_ctrls.totMemAccLat            246023804000                       # Total ticks spent from burst creation until serviced by the DRAM
system.mem_ctrls.totBusLat                41990690000                       # Total ticks spent in databus transfers
system.mem_ctrls.avgQLat                     10545.04                       # Average queueing delay per DRAM burst
system.mem_ctrls.avgBusLat                    5000.00                       # Average bus latency per DRAM burst
system.mem_ctrls.avgMemAccLat                29295.04                       # Average memory access latency per DRAM burst
system.mem_ctrls.avgRdBW                       327.28                       # Average DRAM read bandwidth in MiByte/s
system.mem_ctrls.avgWrBW                       325.45                       # Average achieved write bandwidth in MiByte/s
system.mem_ctrls.avgRdBWSys                    327.38                       # Average system read bandwidth in MiByte/s
system.mem_ctrls.avgWrBWSys                    325.47                       # Average system write bandwidth in MiByte/s
system.mem_ctrls.peakBW                      12800.00                       # Theoretical peak bandwidth in MiByte/s
system.mem_ctrls.busUtil                         5.10                       # Data bus utilization in percentage
system.mem_ctrls.busUtilRead                     2.56                       # Data bus utilization in percentage for reads
system.mem_ctrls.busUtilWrite                    2.54                       # Data bus utilization in percentage for writes
system.mem_ctrls.avgRdQLen                       1.00                       # Average read queue length when enqueuing
system.mem_ctrls.avgWrQLen                      25.22                       # Average write queue length when enqueuing
system.mem_ctrls.readRowHits                  7623269                       # Number of row buffer hits during reads
system.mem_ctrls.writeRowHits                 7701082                       # Number of row buffer hits during writes
system.mem_ctrls.readRowHitRate                 90.77                       # Row buffer hit rate for reads
system.mem_ctrls.writeRowHitRate                92.22                       # Row buffer hit rate for writes
system.mem_ctrls.avgGap                      98030.77                       # Average gap between requests
system.mem_ctrls.pageHitRate                    91.49                       # Row buffer hit rate, read and write combined
system.mem_ctrls_0.actEnergy               5427460080                       # Energy for activate commands per rank (pJ)
system.mem_ctrls_0.preEnergy               2961411750                       # Energy for precharge commands per rank (pJ)
system.mem_ctrls_0.readEnergy             32808695400                       # Energy for read commands per rank (pJ)
system.mem_ctrls_0.writeEnergy            27068638320                       # Energy for write commands per rank (pJ)
system.mem_ctrls_0.refreshEnergy         107265983760                       # Energy for refresh commands per rank (pJ)
system.mem_ctrls_0.actBackEnergy         418021135695                       # Energy for active background per rank (pJ)
system.mem_ctrls_0.preBackEnergy         618685122750                       # Energy for precharge background per rank (pJ)
system.mem_ctrls_0.totalEnergy           1212238447755                       # Total energy per rank (pJ)
system.mem_ctrls_0.averagePower            738.141841                       # Core power per rank (mW)
system.mem_ctrls_0.memoryStateTime::IDLE 1022248201750                       # Time in different power states
system.mem_ctrls_0.memoryStateTime::REF   54839460000                       # Time in different power states
system.mem_ctrls_0.memoryStateTime::PRE_PDN            0                       # Time in different power states
system.mem_ctrls_0.memoryStateTime::ACT  565196234500                       # Time in different power states
system.mem_ctrls_0.memoryStateTime::ACT_PDN            0                       # Time in different power states
system.mem_ctrls_1.actEnergy               5345343360                       # Energy for activate commands per rank (pJ)
system.mem_ctrls_1.preEnergy               2916606000                       # Energy for precharge commands per rank (pJ)
system.mem_ctrls_1.readEnergy             32696781000                       # Energy for read commands per rank (pJ)
system.mem_ctrls_1.writeEnergy            27047053440                       # Energy for write commands per rank (pJ)
system.mem_ctrls_1.refreshEnergy         107265983760                       # Energy for refresh commands per rank (pJ)
system.mem_ctrls_1.actBackEnergy         398671222005                       # Energy for active background per rank (pJ)
system.mem_ctrls_1.preBackEnergy         635658731250                       # Energy for precharge background per rank (pJ)
system.mem_ctrls_1.totalEnergy           1209601720815                       # Total energy per rank (pJ)
system.mem_ctrls_1.averagePower            736.536316                       # Core power per rank (mW)
system.mem_ctrls_1.memoryStateTime::IDLE 1050619405750                       # Time in different power states
system.mem_ctrls_1.memoryStateTime::REF   54839460000                       # Time in different power states
system.mem_ctrls_1.memoryStateTime::PRE_PDN            0                       # Time in different power states
system.mem_ctrls_1.memoryStateTime::ACT  536825030500                       # Time in different power states
system.mem_ctrls_1.memoryStateTime::ACT_PDN            0                       # Time in different power states
system.cpu_voltage_domain.voltage                   1                       # Voltage in Volts
system.cpu_clk_domain.clock                       500                       # Clock period in ticks
system.cpu.apic_clk_domain.clock                 8000                       # Clock period in ticks
system.cpu.workload.num_syscalls                  196                       # Number of system calls
system.cpu.numCycles                       3284577589                       # number of cpu cycles simulated
system.cpu.numWorkItemsStarted                      0                       # number of work items this cpu started
system.cpu.numWorkItemsCompleted                    0                       # number of work items this cpu completed
system.cpu.committedInsts                   500000000                       # Number of instructions committed
system.cpu.committedOps                     823366688                       # Number of ops (including micro ops) committed
system.cpu.num_int_alu_accesses             821415780                       # Number of integer alu accesses
system.cpu.num_fp_alu_accesses               66619254                       # Number of float alu accesses
system.cpu.num_func_calls                     5652773                       # number of times a function call or return occured
system.cpu.num_conditional_control_insts     57208851                       # number of instructions that are conditional controls
system.cpu.num_int_insts                    821415780                       # number of integer instructions
system.cpu.num_fp_insts                      66619254                       # number of float instructions
system.cpu.num_int_register_reads          1637209921                       # number of times the integer registers were read
system.cpu.num_int_register_writes          639871071                       # number of times the integer registers were written
system.cpu.num_fp_register_reads             66766844                       # number of times the floating registers were read
system.cpu.num_fp_register_writes              208042                       # number of times the floating registers were written
system.cpu.num_cc_register_reads            319714234                       # number of times the CC registers were read
system.cpu.num_cc_register_writes           287984020                       # number of times the CC registers were written
system.cpu.num_mem_refs                     271673944                       # number of memory refs
system.cpu.num_load_insts                   157213786                       # Number of load instructions
system.cpu.num_store_insts                  114460158                       # Number of store instructions
system.cpu.num_idle_cycles                          0                       # Number of idle cycles
system.cpu.num_busy_cycles                 3284577589                       # Number of busy cycles
system.cpu.not_idle_fraction                        1                       # Percentage of non-idle cycles
system.cpu.idle_fraction                            0                       # Percentage of idle cycles
system.cpu.Branches                          69678398                       # Number of branches fetched
system.cpu.op_class::No_OpClass                202233      0.02%      0.02% # Class of executed instruction
system.cpu.op_class::IntAlu                 550028809     66.80%     66.83% # Class of executed instruction
system.cpu.op_class::IntMult                   125092      0.02%     66.84% # Class of executed instruction
system.cpu.op_class::IntDiv                   1153479      0.14%     66.98% # Class of executed instruction
system.cpu.op_class::FloatAdd                  183131      0.02%     67.00% # Class of executed instruction
system.cpu.op_class::FloatCmp                       0      0.00%     67.00% # Class of executed instruction
system.cpu.op_class::FloatCvt                       0      0.00%     67.00% # Class of executed instruction
system.cpu.op_class::FloatMult                      0      0.00%     67.00% # Class of executed instruction
system.cpu.op_class::FloatDiv                       0      0.00%     67.00% # Class of executed instruction
system.cpu.op_class::FloatSqrt                      0      0.00%     67.00% # Class of executed instruction
system.cpu.op_class::SimdAdd                        0      0.00%     67.00% # Class of executed instruction
system.cpu.op_class::SimdAddAcc                     0      0.00%     67.00% # Class of executed instruction
system.cpu.op_class::SimdAlu                        0      0.00%     67.00% # Class of executed instruction
system.cpu.op_class::SimdCmp                        0      0.00%     67.00% # Class of executed instruction
system.cpu.op_class::SimdCvt                        0      0.00%     67.00% # Class of executed instruction
system.cpu.op_class::SimdMisc                       0      0.00%     67.00% # Class of executed instruction
system.cpu.op_class::SimdMult                       0      0.00%     67.00% # Class of executed instruction
system.cpu.op_class::SimdMultAcc                    0      0.00%     67.00% # Class of executed instruction
system.cpu.op_class::SimdShift                      0      0.00%     67.00% # Class of executed instruction
system.cpu.op_class::SimdShiftAcc                   0      0.00%     67.00% # Class of executed instruction
system.cpu.op_class::SimdSqrt                       0      0.00%     67.00% # Class of executed instruction
system.cpu.op_class::SimdFloatAdd                   0      0.00%     67.00% # Class of executed instruction
system.cpu.op_class::SimdFloatAlu                   0      0.00%     67.00% # Class of executed instruction
system.cpu.op_class::SimdFloatCmp                   0      0.00%     67.00% # Class of executed instruction
system.cpu.op_class::SimdFloatCvt                   0      0.00%     67.00% # Class of executed instruction
system.cpu.op_class::SimdFloatDiv                   0      0.00%     67.00% # Class of executed instruction
system.cpu.op_class::SimdFloatMisc                  0      0.00%     67.00% # Class of executed instruction
system.cpu.op_class::SimdFloatMult                  0      0.00%     67.00% # Class of executed instruction
system.cpu.op_class::SimdFloatMultAcc               0      0.00%     67.00% # Class of executed instruction
system.cpu.op_class::SimdFloatSqrt                  0      0.00%     67.00% # Class of executed instruction
system.cpu.op_class::MemRead                157213786     19.09%     86.10% # Class of executed instruction
system.cpu.op_class::MemWrite               114460158     13.90%    100.00% # Class of executed instruction
system.cpu.op_class::IprAccess                      0      0.00%    100.00% # Class of executed instruction
system.cpu.op_class::InstPrefetch                   0      0.00%    100.00% # Class of executed instruction
system.cpu.op_class::total                  823366688                       # Class of executed instruction
system.cpu.dcache.tags.replacements           9950036                       # number of replacements
system.cpu.dcache.tags.tagsinuse           511.940012                       # Cycle average of tags in use
system.cpu.dcache.tags.total_refs           261723999                       # Total number of references to valid blocks.
system.cpu.dcache.tags.sampled_refs           9950548                       # Sample count of references to valid blocks.
system.cpu.dcache.tags.avg_refs             26.302471                       # Average number of references to valid blocks.
system.cpu.dcache.tags.warmup_cycle        2757441500                       # Cycle when the warmup percentage was hit.
system.cpu.dcache.tags.occ_blocks::cpu.data   511.940012                       # Average occupied blocks per requestor
system.cpu.dcache.tags.occ_percent::cpu.data     0.999883                       # Average percentage of cache occupancy
system.cpu.dcache.tags.occ_percent::total     0.999883                       # Average percentage of cache occupancy
system.cpu.dcache.tags.occ_task_id_blocks::1024          512                       # Occupied blocks per task id
system.cpu.dcache.tags.age_task_id_blocks_1024::0            9                       # Occupied blocks per task id
system.cpu.dcache.tags.age_task_id_blocks_1024::1           70                       # Occupied blocks per task id
system.cpu.dcache.tags.age_task_id_blocks_1024::2          148                       # Occupied blocks per task id
system.cpu.dcache.tags.age_task_id_blocks_1024::3          251                       # Occupied blocks per task id
system.cpu.dcache.tags.age_task_id_blocks_1024::4           34                       # Occupied blocks per task id
system.cpu.dcache.tags.occ_task_id_percent::1024            1                       # Percentage of cache occupancy per task id
system.cpu.dcache.tags.tag_accesses         281625095                       # Number of tag accesses
system.cpu.dcache.tags.data_accesses        281625095                       # Number of data accesses
system.cpu.dcache.ReadReq_hits::cpu.data    155958373                       # number of ReadReq hits
system.cpu.dcache.ReadReq_hits::total       155958373                       # number of ReadReq hits
system.cpu.dcache.WriteReq_hits::cpu.data    105765626                       # number of WriteReq hits
system.cpu.dcache.WriteReq_hits::total      105765626                       # number of WriteReq hits
system.cpu.dcache.demand_hits::cpu.data     261723999                       # number of demand (read+write) hits
system.cpu.dcache.demand_hits::total        261723999                       # number of demand (read+write) hits
system.cpu.dcache.overall_hits::cpu.data    261723999                       # number of overall hits
system.cpu.dcache.overall_hits::total       261723999                       # number of overall hits
system.cpu.dcache.ReadReq_misses::cpu.data      1256005                       # number of ReadReq misses
system.cpu.dcache.ReadReq_misses::total       1256005                       # number of ReadReq misses
system.cpu.dcache.WriteReq_misses::cpu.data      8694543                       # number of WriteReq misses
system.cpu.dcache.WriteReq_misses::total      8694543                       # number of WriteReq misses
system.cpu.dcache.demand_misses::cpu.data      9950548                       # number of demand (read+write) misses
system.cpu.dcache.demand_misses::total        9950548                       # number of demand (read+write) misses
system.cpu.dcache.overall_misses::cpu.data      9950548                       # number of overall misses
system.cpu.dcache.overall_misses::total       9950548                       # number of overall misses
system.cpu.dcache.ReadReq_miss_latency::cpu.data  23822896000                       # number of ReadReq miss cycles
system.cpu.dcache.ReadReq_miss_latency::total  23822896000                       # number of ReadReq miss cycles
system.cpu.dcache.WriteReq_miss_latency::cpu.data 681258313500                       # number of WriteReq miss cycles
system.cpu.dcache.WriteReq_miss_latency::total 681258313500                       # number of WriteReq miss cycles
system.cpu.dcache.demand_miss_latency::cpu.data 705081209500                       # number of demand (read+write) miss cycles
system.cpu.dcache.demand_miss_latency::total 705081209500                       # number of demand (read+write) miss cycles
system.cpu.dcache.overall_miss_latency::cpu.data 705081209500                       # number of overall miss cycles
system.cpu.dcache.overall_miss_latency::total 705081209500                       # number of overall miss cycles
system.cpu.dcache.ReadReq_accesses::cpu.data    157214378                       # number of ReadReq accesses(hits+misses)
system.cpu.dcache.ReadReq_accesses::total    157214378                       # number of ReadReq accesses(hits+misses)
system.cpu.dcache.WriteReq_accesses::cpu.data    114460169                       # number of WriteReq accesses(hits+misses)
system.cpu.dcache.WriteReq_accesses::total    114460169                       # number of WriteReq accesses(hits+misses)
system.cpu.dcache.demand_accesses::cpu.data    271674547                       # number of demand (read+write) accesses
system.cpu.dcache.demand_accesses::total    271674547                       # number of demand (read+write) accesses
system.cpu.dcache.overall_accesses::cpu.data    271674547                       # number of overall (read+write) accesses
system.cpu.dcache.overall_accesses::total    271674547                       # number of overall (read+write) accesses
system.cpu.dcache.ReadReq_miss_rate::cpu.data     0.007989                       # miss rate for ReadReq accesses
system.cpu.dcache.ReadReq_miss_rate::total     0.007989                       # miss rate for ReadReq accesses
system.cpu.dcache.WriteReq_miss_rate::cpu.data     0.075961                       # miss rate for WriteReq accesses
system.cpu.dcache.WriteReq_miss_rate::total     0.075961                       # miss rate for WriteReq accesses
system.cpu.dcache.demand_miss_rate::cpu.data     0.036627                       # miss rate for demand accesses
system.cpu.dcache.demand_miss_rate::total     0.036627                       # miss rate for demand accesses
system.cpu.dcache.overall_miss_rate::cpu.data     0.036627                       # miss rate for overall accesses
system.cpu.dcache.overall_miss_rate::total     0.036627                       # miss rate for overall accesses
system.cpu.dcache.ReadReq_avg_miss_latency::cpu.data 18967.198379                       # average ReadReq miss latency
system.cpu.dcache.ReadReq_avg_miss_latency::total 18967.198379                       # average ReadReq miss latency
system.cpu.dcache.WriteReq_avg_miss_latency::cpu.data 78354.700586                       # average WriteReq miss latency
system.cpu.dcache.WriteReq_avg_miss_latency::total 78354.700586                       # average WriteReq miss latency
system.cpu.dcache.demand_avg_miss_latency::cpu.data 70858.530555                       # average overall miss latency
system.cpu.dcache.demand_avg_miss_latency::total 70858.530555                       # average overall miss latency
system.cpu.dcache.overall_avg_miss_latency::cpu.data 70858.530555                       # average overall miss latency
system.cpu.dcache.overall_avg_miss_latency::total 70858.530555                       # average overall miss latency
system.cpu.dcache.blocked_cycles::no_mshrs            0                       # number of cycles access was blocked
system.cpu.dcache.blocked_cycles::no_targets            0                       # number of cycles access was blocked
system.cpu.dcache.blocked::no_mshrs                 0                       # number of cycles access was blocked
system.cpu.dcache.blocked::no_targets               0                       # number of cycles access was blocked
system.cpu.dcache.avg_blocked_cycles::no_mshrs          nan                       # average number of cycles each access was blocked
system.cpu.dcache.avg_blocked_cycles::no_targets          nan                       # average number of cycles each access was blocked
system.cpu.dcache.fast_writes                       0                       # number of fast writes performed
system.cpu.dcache.cache_copies                      0                       # number of cache copies performed
system.cpu.dcache.writebacks::writebacks      9254884                       # number of writebacks
system.cpu.dcache.writebacks::total           9254884                       # number of writebacks
system.cpu.dcache.ReadReq_mshr_misses::cpu.data      1256005                       # number of ReadReq MSHR misses
system.cpu.dcache.ReadReq_mshr_misses::total      1256005                       # number of ReadReq MSHR misses
system.cpu.dcache.WriteReq_mshr_misses::cpu.data      8694543                       # number of WriteReq MSHR misses
system.cpu.dcache.WriteReq_mshr_misses::total      8694543                       # number of WriteReq MSHR misses
system.cpu.dcache.demand_mshr_misses::cpu.data      9950548                       # number of demand (read+write) MSHR misses
system.cpu.dcache.demand_mshr_misses::total      9950548                       # number of demand (read+write) MSHR misses
system.cpu.dcache.overall_mshr_misses::cpu.data      9950548                       # number of overall MSHR misses
system.cpu.dcache.overall_mshr_misses::total      9950548                       # number of overall MSHR misses
system.cpu.dcache.ReadReq_mshr_miss_latency::cpu.data  22566891000                       # number of ReadReq MSHR miss cycles
system.cpu.dcache.ReadReq_mshr_miss_latency::total  22566891000                       # number of ReadReq MSHR miss cycles
system.cpu.dcache.WriteReq_mshr_miss_latency::cpu.data 672563770500                       # number of WriteReq MSHR miss cycles
system.cpu.dcache.WriteReq_mshr_miss_latency::total 672563770500                       # number of WriteReq MSHR miss cycles
system.cpu.dcache.demand_mshr_miss_latency::cpu.data 695130661500                       # number of demand (read+write) MSHR miss cycles
system.cpu.dcache.demand_mshr_miss_latency::total 695130661500                       # number of demand (read+write) MSHR miss cycles
system.cpu.dcache.overall_mshr_miss_latency::cpu.data 695130661500                       # number of overall MSHR miss cycles
system.cpu.dcache.overall_mshr_miss_latency::total 695130661500                       # number of overall MSHR miss cycles
system.cpu.dcache.ReadReq_mshr_miss_rate::cpu.data     0.007989                       # mshr miss rate for ReadReq accesses
system.cpu.dcache.ReadReq_mshr_miss_rate::total     0.007989                       # mshr miss rate for ReadReq accesses
system.cpu.dcache.WriteReq_mshr_miss_rate::cpu.data     0.075961                       # mshr miss rate for WriteReq accesses
system.cpu.dcache.WriteReq_mshr_miss_rate::total     0.075961                       # mshr miss rate for WriteReq accesses
system.cpu.dcache.demand_mshr_miss_rate::cpu.data     0.036627                       # mshr miss rate for demand accesses
system.cpu.dcache.demand_mshr_miss_rate::total     0.036627                       # mshr miss rate for demand accesses
system.cpu.dcache.overall_mshr_miss_rate::cpu.data     0.036627                       # mshr miss rate for overall accesses
system.cpu.dcache.overall_mshr_miss_rate::total     0.036627                       # mshr miss rate for overall accesses
system.cpu.dcache.ReadReq_avg_mshr_miss_latency::cpu.data 17967.198379                       # average ReadReq mshr miss latency
system.cpu.dcache.ReadReq_avg_mshr_miss_latency::total 17967.198379                       # average ReadReq mshr miss latency
system.cpu.dcache.WriteReq_avg_mshr_miss_latency::cpu.data 77354.700586                       # average WriteReq mshr miss latency
system.cpu.dcache.WriteReq_avg_mshr_miss_latency::total 77354.700586                       # average WriteReq mshr miss latency
system.cpu.dcache.demand_avg_mshr_miss_latency::cpu.data 69858.530555                       # average overall mshr miss latency
system.cpu.dcache.demand_avg_mshr_miss_latency::total 69858.530555                       # average overall mshr miss latency
system.cpu.dcache.overall_avg_mshr_miss_latency::cpu.data 69858.530555                       # average overall mshr miss latency
system.cpu.dcache.overall_avg_mshr_miss_latency::total 69858.530555                       # average overall mshr miss latency
system.cpu.dcache.no_allocate_misses                0                       # Number of misses that were no-allocate
system.cpu.dtb_walker_cache.tags.replacements            0                       # number of replacements
system.cpu.dtb_walker_cache.tags.tagsinuse            0                       # Cycle average of tags in use
system.cpu.dtb_walker_cache.tags.total_refs            0                       # Total number of references to valid blocks.
system.cpu.dtb_walker_cache.tags.sampled_refs            0                       # Sample count of references to valid blocks.
system.cpu.dtb_walker_cache.tags.avg_refs          nan                       # Average number of references to valid blocks.
system.cpu.dtb_walker_cache.tags.warmup_cycle            0                       # Cycle when the warmup percentage was hit.
system.cpu.dtb_walker_cache.tags.tag_accesses            0                       # Number of tag accesses
system.cpu.dtb_walker_cache.tags.data_accesses            0                       # Number of data accesses
system.cpu.dtb_walker_cache.blocked_cycles::no_mshrs            0                       # number of cycles access was blocked
system.cpu.dtb_walker_cache.blocked_cycles::no_targets            0                       # number of cycles access was blocked
system.cpu.dtb_walker_cache.blocked::no_mshrs            0                       # number of cycles access was blocked
system.cpu.dtb_walker_cache.blocked::no_targets            0                       # number of cycles access was blocked
system.cpu.dtb_walker_cache.avg_blocked_cycles::no_mshrs          nan                       # average number of cycles each access was blocked
system.cpu.dtb_walker_cache.avg_blocked_cycles::no_targets          nan                       # average number of cycles each access was blocked
system.cpu.dtb_walker_cache.fast_writes             0                       # number of fast writes performed
system.cpu.dtb_walker_cache.cache_copies            0                       # number of cache copies performed
system.cpu.dtb_walker_cache.no_allocate_misses            0                       # Number of misses that were no-allocate
system.cpu.icache.tags.replacements                32                       # number of replacements
system.cpu.icache.tags.tagsinuse          1062.770584                       # Cycle average of tags in use
system.cpu.icache.tags.total_refs           675352059                       # Total number of references to valid blocks.
system.cpu.icache.tags.sampled_refs              1603                       # Sample count of references to valid blocks.
system.cpu.icache.tags.avg_refs          421305.089832                       # Average number of references to valid blocks.
system.cpu.icache.tags.warmup_cycle                 0                       # Cycle when the warmup percentage was hit.
system.cpu.icache.tags.occ_blocks::cpu.inst  1062.770584                       # Average occupied blocks per requestor
system.cpu.icache.tags.occ_percent::cpu.inst     0.518931                       # Average percentage of cache occupancy
system.cpu.icache.tags.occ_percent::total     0.518931                       # Average percentage of cache occupancy
system.cpu.icache.tags.occ_task_id_blocks::1024         1571                       # Occupied blocks per task id
system.cpu.icache.tags.age_task_id_blocks_1024::4         1571                       # Occupied blocks per task id
system.cpu.icache.tags.occ_task_id_percent::1024     0.767090                       # Percentage of cache occupancy per task id
system.cpu.icache.tags.tag_accesses        5402830899                       # Number of tag accesses
system.cpu.icache.tags.data_accesses       5402830899                       # Number of data accesses
system.cpu.icache.ReadReq_hits::cpu.inst    675352059                       # number of ReadReq hits
system.cpu.icache.ReadReq_hits::total       675352059                       # number of ReadReq hits
system.cpu.icache.demand_hits::cpu.inst     675352059                       # number of demand (read+write) hits
system.cpu.icache.demand_hits::total        675352059                       # number of demand (read+write) hits
system.cpu.icache.overall_hits::cpu.inst    675352059                       # number of overall hits
system.cpu.icache.overall_hits::total       675352059                       # number of overall hits
system.cpu.icache.ReadReq_misses::cpu.inst         1603                       # number of ReadReq misses
system.cpu.icache.ReadReq_misses::total          1603                       # number of ReadReq misses
system.cpu.icache.demand_misses::cpu.inst         1603                       # number of demand (read+write) misses
system.cpu.icache.demand_misses::total           1603                       # number of demand (read+write) misses
system.cpu.icache.overall_misses::cpu.inst         1603                       # number of overall misses
system.cpu.icache.overall_misses::total          1603                       # number of overall misses
system.cpu.icache.ReadReq_miss_latency::cpu.inst    131967000                       # number of ReadReq miss cycles
system.cpu.icache.ReadReq_miss_latency::total    131967000                       # number of ReadReq miss cycles
system.cpu.icache.demand_miss_latency::cpu.inst    131967000                       # number of demand (read+write) miss cycles
system.cpu.icache.demand_miss_latency::total    131967000                       # number of demand (read+write) miss cycles
system.cpu.icache.overall_miss_latency::cpu.inst    131967000                       # number of overall miss cycles
system.cpu.icache.overall_miss_latency::total    131967000                       # number of overall miss cycles
system.cpu.icache.ReadReq_accesses::cpu.inst    675353662                       # number of ReadReq accesses(hits+misses)
system.cpu.icache.ReadReq_accesses::total    675353662                       # number of ReadReq accesses(hits+misses)
system.cpu.icache.demand_accesses::cpu.inst    675353662                       # number of demand (read+write) accesses
system.cpu.icache.demand_accesses::total    675353662                       # number of demand (read+write) accesses
system.cpu.icache.overall_accesses::cpu.inst    675353662                       # number of overall (read+write) accesses
system.cpu.icache.overall_accesses::total    675353662                       # number of overall (read+write) accesses
system.cpu.icache.ReadReq_miss_rate::cpu.inst     0.000002                       # miss rate for ReadReq accesses
system.cpu.icache.ReadReq_miss_rate::total     0.000002                       # miss rate for ReadReq accesses
system.cpu.icache.demand_miss_rate::cpu.inst     0.000002                       # miss rate for demand accesses
system.cpu.icache.demand_miss_rate::total     0.000002                       # miss rate for demand accesses
system.cpu.icache.overall_miss_rate::cpu.inst     0.000002                       # miss rate for overall accesses
system.cpu.icache.overall_miss_rate::total     0.000002                       # miss rate for overall accesses
system.cpu.icache.ReadReq_avg_miss_latency::cpu.inst 82325.015596                       # average ReadReq miss latency
system.cpu.icache.ReadReq_avg_miss_latency::total 82325.015596                       # average ReadReq miss latency
system.cpu.icache.demand_avg_miss_latency::cpu.inst 82325.015596                       # average overall miss latency
system.cpu.icache.demand_avg_miss_latency::total 82325.015596                       # average overall miss latency
system.cpu.icache.overall_avg_miss_latency::cpu.inst 82325.015596                       # average overall miss latency
system.cpu.icache.overall_avg_miss_latency::total 82325.015596                       # average overall miss latency
system.cpu.icache.blocked_cycles::no_mshrs            0                       # number of cycles access was blocked
system.cpu.icache.blocked_cycles::no_targets            0                       # number of cycles access was blocked
system.cpu.icache.blocked::no_mshrs                 0                       # number of cycles access was blocked
system.cpu.icache.blocked::no_targets               0                       # number of cycles access was blocked
system.cpu.icache.avg_blocked_cycles::no_mshrs          nan                       # average number of cycles each access was blocked
system.cpu.icache.avg_blocked_cycles::no_targets          nan                       # average number of cycles each access was blocked
system.cpu.icache.fast_writes                       0                       # number of fast writes performed
system.cpu.icache.cache_copies                      0                       # number of cache copies performed
system.cpu.icache.writebacks::writebacks           32                       # number of writebacks
system.cpu.icache.writebacks::total                32                       # number of writebacks
system.cpu.icache.ReadReq_mshr_misses::cpu.inst         1603                       # number of ReadReq MSHR misses
system.cpu.icache.ReadReq_mshr_misses::total         1603                       # number of ReadReq MSHR misses
system.cpu.icache.demand_mshr_misses::cpu.inst         1603                       # number of demand (read+write) MSHR misses
system.cpu.icache.demand_mshr_misses::total         1603                       # number of demand (read+write) MSHR misses
system.cpu.icache.overall_mshr_misses::cpu.inst         1603                       # number of overall MSHR misses
system.cpu.icache.overall_mshr_misses::total         1603                       # number of overall MSHR misses
system.cpu.icache.ReadReq_mshr_miss_latency::cpu.inst    130364000                       # number of ReadReq MSHR miss cycles
system.cpu.icache.ReadReq_mshr_miss_latency::total    130364000                       # number of ReadReq MSHR miss cycles
system.cpu.icache.demand_mshr_miss_latency::cpu.inst    130364000                       # number of demand (read+write) MSHR miss cycles
system.cpu.icache.demand_mshr_miss_latency::total    130364000                       # number of demand (read+write) MSHR miss cycles
system.cpu.icache.overall_mshr_miss_latency::cpu.inst    130364000                       # number of overall MSHR miss cycles
system.cpu.icache.overall_mshr_miss_latency::total    130364000                       # number of overall MSHR miss cycles
system.cpu.icache.ReadReq_mshr_miss_rate::cpu.inst     0.000002                       # mshr miss rate for ReadReq accesses
system.cpu.icache.ReadReq_mshr_miss_rate::total     0.000002                       # mshr miss rate for ReadReq accesses
system.cpu.icache.demand_mshr_miss_rate::cpu.inst     0.000002                       # mshr miss rate for demand accesses
system.cpu.icache.demand_mshr_miss_rate::total     0.000002                       # mshr miss rate for demand accesses
system.cpu.icache.overall_mshr_miss_rate::cpu.inst     0.000002                       # mshr miss rate for overall accesses
system.cpu.icache.overall_mshr_miss_rate::total     0.000002                       # mshr miss rate for overall accesses
system.cpu.icache.ReadReq_avg_mshr_miss_latency::cpu.inst 81325.015596                       # average ReadReq mshr miss latency
system.cpu.icache.ReadReq_avg_mshr_miss_latency::total 81325.015596                       # average ReadReq mshr miss latency
system.cpu.icache.demand_avg_mshr_miss_latency::cpu.inst 81325.015596                       # average overall mshr miss latency
system.cpu.icache.demand_avg_mshr_miss_latency::total 81325.015596                       # average overall mshr miss latency
system.cpu.icache.overall_avg_mshr_miss_latency::cpu.inst 81325.015596                       # average overall mshr miss latency
system.cpu.icache.overall_avg_mshr_miss_latency::total 81325.015596                       # average overall mshr miss latency
system.cpu.icache.no_allocate_misses                0                       # Number of misses that were no-allocate
system.cpu.itb_walker_cache.tags.replacements            0                       # number of replacements
system.cpu.itb_walker_cache.tags.tagsinuse            0                       # Cycle average of tags in use
system.cpu.itb_walker_cache.tags.total_refs            0                       # Total number of references to valid blocks.
system.cpu.itb_walker_cache.tags.sampled_refs            0                       # Sample count of references to valid blocks.
system.cpu.itb_walker_cache.tags.avg_refs          nan                       # Average number of references to valid blocks.
system.cpu.itb_walker_cache.tags.warmup_cycle            0                       # Cycle when the warmup percentage was hit.
system.cpu.itb_walker_cache.tags.tag_accesses            0                       # Number of tag accesses
system.cpu.itb_walker_cache.tags.data_accesses            0                       # Number of data accesses
system.cpu.itb_walker_cache.blocked_cycles::no_mshrs            0                       # number of cycles access was blocked
system.cpu.itb_walker_cache.blocked_cycles::no_targets            0                       # number of cycles access was blocked
system.cpu.itb_walker_cache.blocked::no_mshrs            0                       # number of cycles access was blocked
system.cpu.itb_walker_cache.blocked::no_targets            0                       # number of cycles access was blocked
system.cpu.itb_walker_cache.avg_blocked_cycles::no_mshrs          nan                       # average number of cycles each access was blocked
system.cpu.itb_walker_cache.avg_blocked_cycles::no_targets          nan                       # average number of cycles each access was blocked
system.cpu.itb_walker_cache.fast_writes             0                       # number of fast writes performed
system.cpu.itb_walker_cache.cache_copies            0                       # number of cache copies performed
system.cpu.itb_walker_cache.no_allocate_misses            0                       # Number of misses that were no-allocate
system.l2.tags.replacements                   8418530                       # number of replacements
system.l2.tags.tagsinuse                 16003.721949                       # Cycle average of tags in use
system.l2.tags.total_refs                     2714613                       # Total number of references to valid blocks.
system.l2.tags.sampled_refs                   8434812                       # Sample count of references to valid blocks.
system.l2.tags.avg_refs                      0.321834                       # Average number of references to valid blocks.
system.l2.tags.warmup_cycle                         0                       # Cycle when the warmup percentage was hit.
system.l2.tags.occ_blocks::writebacks    10902.441850                       # Average occupied blocks per requestor
system.l2.tags.occ_blocks::cpu.inst         81.207606                       # Average occupied blocks per requestor
system.l2.tags.occ_blocks::cpu.data       5020.072493                       # Average occupied blocks per requestor
system.l2.tags.occ_percent::writebacks       0.665432                       # Average percentage of cache occupancy
system.l2.tags.occ_percent::cpu.inst         0.004957                       # Average percentage of cache occupancy
system.l2.tags.occ_percent::cpu.data         0.306401                       # Average percentage of cache occupancy
system.l2.tags.occ_percent::total            0.976790                       # Average percentage of cache occupancy
system.l2.tags.occ_task_id_blocks::1024         16282                       # Occupied blocks per task id
system.l2.tags.age_task_id_blocks_1024::0            1                       # Occupied blocks per task id
system.l2.tags.age_task_id_blocks_1024::1           35                       # Occupied blocks per task id
system.l2.tags.age_task_id_blocks_1024::2          157                       # Occupied blocks per task id
system.l2.tags.age_task_id_blocks_1024::3          918                       # Occupied blocks per task id
system.l2.tags.age_task_id_blocks_1024::4        15171                       # Occupied blocks per task id
system.l2.tags.occ_task_id_percent::1024     0.993774                       # Percentage of cache occupancy per task id
system.l2.tags.tag_accesses                  37031573                       # Number of tag accesses
system.l2.tags.data_accesses                 37031573                       # Number of data accesses
system.l2.WritebackDirty_hits::writebacks      9254884                       # number of WritebackDirty hits
system.l2.WritebackDirty_hits::total          9254884                       # number of WritebackDirty hits
system.l2.WritebackClean_hits::writebacks           32                       # number of WritebackClean hits
system.l2.WritebackClean_hits::total               32                       # number of WritebackClean hits
system.l2.ReadExReq_hits::cpu.data             393895                       # number of ReadExReq hits
system.l2.ReadExReq_hits::total                393895                       # number of ReadExReq hits
system.l2.ReadCleanReq_hits::cpu.inst               1                       # number of ReadCleanReq hits
system.l2.ReadCleanReq_hits::total                  1                       # number of ReadCleanReq hits
system.l2.ReadSharedReq_hits::cpu.data        1157464                       # number of ReadSharedReq hits
system.l2.ReadSharedReq_hits::total           1157464                       # number of ReadSharedReq hits
system.l2.demand_hits::cpu.inst                     1                       # number of demand (read+write) hits
system.l2.demand_hits::cpu.data               1551359                       # number of demand (read+write) hits
system.l2.demand_hits::total                  1551360                       # number of demand (read+write) hits
system.l2.overall_hits::cpu.inst                    1                       # number of overall hits
system.l2.overall_hits::cpu.data              1551359                       # number of overall hits
system.l2.overall_hits::total                 1551360                       # number of overall hits
system.l2.ReadExReq_misses::cpu.data          8300648                       # number of ReadExReq misses
system.l2.ReadExReq_misses::total             8300648                       # number of ReadExReq misses
system.l2.ReadCleanReq_misses::cpu.inst          1602                       # number of ReadCleanReq misses
system.l2.ReadCleanReq_misses::total             1602                       # number of ReadCleanReq misses
system.l2.ReadSharedReq_misses::cpu.data        98541                       # number of ReadSharedReq misses
system.l2.ReadSharedReq_misses::total           98541                       # number of ReadSharedReq misses
system.l2.demand_misses::cpu.inst                1602                       # number of demand (read+write) misses
system.l2.demand_misses::cpu.data             8399189                       # number of demand (read+write) misses
system.l2.demand_misses::total                8400791                       # number of demand (read+write) misses
system.l2.overall_misses::cpu.inst               1602                       # number of overall misses
system.l2.overall_misses::cpu.data            8399189                       # number of overall misses
system.l2.overall_misses::total               8400791                       # number of overall misses
system.l2.ReadExReq_miss_latency::cpu.data 655386054000                       # number of ReadExReq miss cycles
system.l2.ReadExReq_miss_latency::total  655386054000                       # number of ReadExReq miss cycles
system.l2.ReadCleanReq_miss_latency::cpu.inst    127940000                       # number of ReadCleanReq miss cycles
system.l2.ReadCleanReq_miss_latency::total    127940000                       # number of ReadCleanReq miss cycles
system.l2.ReadSharedReq_miss_latency::cpu.data   8529509500                       # number of ReadSharedReq miss cycles
system.l2.ReadSharedReq_miss_latency::total   8529509500                       # number of ReadSharedReq miss cycles
system.l2.demand_miss_latency::cpu.inst     127940000                       # number of demand (read+write) miss cycles
system.l2.demand_miss_latency::cpu.data  663915563500                       # number of demand (read+write) miss cycles
system.l2.demand_miss_latency::total     664043503500                       # number of demand (read+write) miss cycles
system.l2.overall_miss_latency::cpu.inst    127940000                       # number of overall miss cycles
system.l2.overall_miss_latency::cpu.data 663915563500                       # number of overall miss cycles
system.l2.overall_miss_latency::total    664043503500                       # number of overall miss cycles
system.l2.WritebackDirty_accesses::writebacks      9254884                       # number of WritebackDirty accesses(hits+misses)
system.l2.WritebackDirty_accesses::total      9254884                       # number of WritebackDirty accesses(hits+misses)
system.l2.WritebackClean_accesses::writebacks           32                       # number of WritebackClean accesses(hits+misses)
system.l2.WritebackClean_accesses::total           32                       # number of WritebackClean accesses(hits+misses)
system.l2.ReadExReq_accesses::cpu.data        8694543                       # number of ReadExReq accesses(hits+misses)
system.l2.ReadExReq_accesses::total           8694543                       # number of ReadExReq accesses(hits+misses)
system.l2.ReadCleanReq_accesses::cpu.inst         1603                       # number of ReadCleanReq accesses(hits+misses)
system.l2.ReadCleanReq_accesses::total           1603                       # number of ReadCleanReq accesses(hits+misses)
system.l2.ReadSharedReq_accesses::cpu.data      1256005                       # number of ReadSharedReq accesses(hits+misses)
system.l2.ReadSharedReq_accesses::total       1256005                       # number of ReadSharedReq accesses(hits+misses)
system.l2.demand_accesses::cpu.inst              1603                       # number of demand (read+write) accesses
system.l2.demand_accesses::cpu.data           9950548                       # number of demand (read+write) accesses
system.l2.demand_accesses::total              9952151                       # number of demand (read+write) accesses
system.l2.overall_accesses::cpu.inst             1603                       # number of overall (read+write) accesses
system.l2.overall_accesses::cpu.data          9950548                       # number of overall (read+write) accesses
system.l2.overall_accesses::total             9952151                       # number of overall (read+write) accesses
system.l2.ReadExReq_miss_rate::cpu.data      0.954696                       # miss rate for ReadExReq accesses
system.l2.ReadExReq_miss_rate::total         0.954696                       # miss rate for ReadExReq accesses
system.l2.ReadCleanReq_miss_rate::cpu.inst     0.999376                       # miss rate for ReadCleanReq accesses
system.l2.ReadCleanReq_miss_rate::total      0.999376                       # miss rate for ReadCleanReq accesses
system.l2.ReadSharedReq_miss_rate::cpu.data     0.078456                       # miss rate for ReadSharedReq accesses
system.l2.ReadSharedReq_miss_rate::total     0.078456                       # miss rate for ReadSharedReq accesses
system.l2.demand_miss_rate::cpu.inst         0.999376                       # miss rate for demand accesses
system.l2.demand_miss_rate::cpu.data         0.844093                       # miss rate for demand accesses
system.l2.demand_miss_rate::total            0.844118                       # miss rate for demand accesses
system.l2.overall_miss_rate::cpu.inst        0.999376                       # miss rate for overall accesses
system.l2.overall_miss_rate::cpu.data        0.844093                       # miss rate for overall accesses
system.l2.overall_miss_rate::total           0.844118                       # miss rate for overall accesses
system.l2.ReadExReq_avg_miss_latency::cpu.data 78956.010904                       # average ReadExReq miss latency
system.l2.ReadExReq_avg_miss_latency::total 78956.010904                       # average ReadExReq miss latency
system.l2.ReadCleanReq_avg_miss_latency::cpu.inst 79862.671660                       # average ReadCleanReq miss latency
system.l2.ReadCleanReq_avg_miss_latency::total 79862.671660                       # average ReadCleanReq miss latency
system.l2.ReadSharedReq_avg_miss_latency::cpu.data 86557.975868                       # average ReadSharedReq miss latency
system.l2.ReadSharedReq_avg_miss_latency::total 86557.975868                       # average ReadSharedReq miss latency
system.l2.demand_avg_miss_latency::cpu.inst 79862.671660                       # average overall miss latency
system.l2.demand_avg_miss_latency::cpu.data 79045.198709                       # average overall miss latency
system.l2.demand_avg_miss_latency::total 79045.354598                       # average overall miss latency
system.l2.overall_avg_miss_latency::cpu.inst 79862.671660                       # average overall miss latency
system.l2.overall_avg_miss_latency::cpu.data 79045.198709                       # average overall miss latency
system.l2.overall_avg_miss_latency::total 79045.354598                       # average overall miss latency
system.l2.blocked_cycles::no_mshrs                  0                       # number of cycles access was blocked
system.l2.blocked_cycles::no_targets                0                       # number of cycles access was blocked
system.l2.blocked::no_mshrs                         0                       # number of cycles access was blocked
system.l2.blocked::no_targets                       0                       # number of cycles access was blocked
system.l2.avg_blocked_cycles::no_mshrs            nan                       # average number of cycles each access was blocked
system.l2.avg_blocked_cycles::no_targets          nan                       # average number of cycles each access was blocked
system.l2.fast_writes                               0                       # number of fast writes performed
system.l2.cache_copies                              0                       # number of cache copies performed
system.l2.writebacks::writebacks              8351866                       # number of writebacks
system.l2.writebacks::total                   8351866                       # number of writebacks
system.l2.CleanEvict_mshr_misses::writebacks        15505                       # number of CleanEvict MSHR misses
system.l2.CleanEvict_mshr_misses::total         15505                       # number of CleanEvict MSHR misses
system.l2.ReadExReq_mshr_misses::cpu.data      8300648                       # number of ReadExReq MSHR misses
system.l2.ReadExReq_mshr_misses::total        8300648                       # number of ReadExReq MSHR misses
system.l2.ReadCleanReq_mshr_misses::cpu.inst         1602                       # number of ReadCleanReq MSHR misses
system.l2.ReadCleanReq_mshr_misses::total         1602                       # number of ReadCleanReq MSHR misses
system.l2.ReadSharedReq_mshr_misses::cpu.data        98541                       # number of ReadSharedReq MSHR misses
system.l2.ReadSharedReq_mshr_misses::total        98541                       # number of ReadSharedReq MSHR misses
system.l2.demand_mshr_misses::cpu.inst           1602                       # number of demand (read+write) MSHR misses
system.l2.demand_mshr_misses::cpu.data        8399189                       # number of demand (read+write) MSHR misses
system.l2.demand_mshr_misses::total           8400791                       # number of demand (read+write) MSHR misses
system.l2.overall_mshr_misses::cpu.inst          1602                       # number of overall MSHR misses
system.l2.overall_mshr_misses::cpu.data       8399189                       # number of overall MSHR misses
system.l2.overall_mshr_misses::total          8400791                       # number of overall MSHR misses
system.l2.ReadExReq_mshr_miss_latency::cpu.data 572379574000                       # number of ReadExReq MSHR miss cycles
system.l2.ReadExReq_mshr_miss_latency::total 572379574000                       # number of ReadExReq MSHR miss cycles
system.l2.ReadCleanReq_mshr_miss_latency::cpu.inst    111920000                       # number of ReadCleanReq MSHR miss cycles
system.l2.ReadCleanReq_mshr_miss_latency::total    111920000                       # number of ReadCleanReq MSHR miss cycles
system.l2.ReadSharedReq_mshr_miss_latency::cpu.data   7544099500                       # number of ReadSharedReq MSHR miss cycles
system.l2.ReadSharedReq_mshr_miss_latency::total   7544099500                       # number of ReadSharedReq MSHR miss cycles
system.l2.demand_mshr_miss_latency::cpu.inst    111920000                       # number of demand (read+write) MSHR miss cycles
system.l2.demand_mshr_miss_latency::cpu.data 579923673500                       # number of demand (read+write) MSHR miss cycles
system.l2.demand_mshr_miss_latency::total 580035593500                       # number of demand (read+write) MSHR miss cycles
system.l2.overall_mshr_miss_latency::cpu.inst    111920000                       # number of overall MSHR miss cycles
system.l2.overall_mshr_miss_latency::cpu.data 579923673500                       # number of overall MSHR miss cycles
system.l2.overall_mshr_miss_latency::total 580035593500                       # number of overall MSHR miss cycles
system.l2.CleanEvict_mshr_miss_rate::writebacks          inf                       # mshr miss rate for CleanEvict accesses
system.l2.CleanEvict_mshr_miss_rate::total          inf                       # mshr miss rate for CleanEvict accesses
system.l2.ReadExReq_mshr_miss_rate::cpu.data     0.954696                       # mshr miss rate for ReadExReq accesses
system.l2.ReadExReq_mshr_miss_rate::total     0.954696                       # mshr miss rate for ReadExReq accesses
system.l2.ReadCleanReq_mshr_miss_rate::cpu.inst     0.999376                       # mshr miss rate for ReadCleanReq accesses
system.l2.ReadCleanReq_mshr_miss_rate::total     0.999376                       # mshr miss rate for ReadCleanReq accesses
system.l2.ReadSharedReq_mshr_miss_rate::cpu.data     0.078456                       # mshr miss rate for ReadSharedReq accesses
system.l2.ReadSharedReq_mshr_miss_rate::total     0.078456                       # mshr miss rate for ReadSharedReq accesses
system.l2.demand_mshr_miss_rate::cpu.inst     0.999376                       # mshr miss rate for demand accesses
system.l2.demand_mshr_miss_rate::cpu.data     0.844093                       # mshr miss rate for demand accesses
system.l2.demand_mshr_miss_rate::total       0.844118                       # mshr miss rate for demand accesses
system.l2.overall_mshr_miss_rate::cpu.inst     0.999376                       # mshr miss rate for overall accesses
system.l2.overall_mshr_miss_rate::cpu.data     0.844093                       # mshr miss rate for overall accesses
system.l2.overall_mshr_miss_rate::total      0.844118                       # mshr miss rate for overall accesses
system.l2.ReadExReq_avg_mshr_miss_latency::cpu.data 68956.010904                       # average ReadExReq mshr miss latency
system.l2.ReadExReq_avg_mshr_miss_latency::total 68956.010904                       # average ReadExReq mshr miss latency
system.l2.ReadCleanReq_avg_mshr_miss_latency::cpu.inst 69862.671660                       # average ReadCleanReq mshr miss latency
system.l2.ReadCleanReq_avg_mshr_miss_latency::total 69862.671660                       # average ReadCleanReq mshr miss latency
system.l2.ReadSharedReq_avg_mshr_miss_latency::cpu.data 76557.975868                       # average ReadSharedReq mshr miss latency
system.l2.ReadSharedReq_avg_mshr_miss_latency::total 76557.975868                       # average ReadSharedReq mshr miss latency
system.l2.demand_avg_mshr_miss_latency::cpu.inst 69862.671660                       # average overall mshr miss latency
system.l2.demand_avg_mshr_miss_latency::cpu.data 69045.198709                       # average overall mshr miss latency
system.l2.demand_avg_mshr_miss_latency::total 69045.354598                       # average overall mshr miss latency
system.l2.overall_avg_mshr_miss_latency::cpu.inst 69862.671660                       # average overall mshr miss latency
system.l2.overall_avg_mshr_miss_latency::cpu.data 69045.198709                       # average overall mshr miss latency
system.l2.overall_avg_mshr_miss_latency::total 69045.354598                       # average overall mshr miss latency
system.l2.no_allocate_misses                        0                       # Number of misses that were no-allocate
system.membus.trans_dist::ReadResp             100143                       # Transaction distribution
system.membus.trans_dist::WritebackDirty      8351866                       # Transaction distribution
system.membus.trans_dist::CleanEvict            30972                       # Transaction distribution
system.membus.trans_dist::ReadExReq           8300648                       # Transaction distribution
system.membus.trans_dist::ReadExResp          8300648                       # Transaction distribution
system.membus.trans_dist::ReadSharedReq        100143                       # Transaction distribution
system.membus.pkt_count_system.l2.mem_side::system.mem_ctrls.port     25184420                       # Packet count per connected master and slave (bytes)
system.membus.pkt_count_system.l2.mem_side::total     25184420                       # Packet count per connected master and slave (bytes)
system.membus.pkt_count::total               25184420                       # Packet count per connected master and slave (bytes)
system.membus.pkt_size_system.l2.mem_side::system.mem_ctrls.port   1072170048                       # Cumulative packet size per connected master and slave (bytes)
system.membus.pkt_size_system.l2.mem_side::total   1072170048                       # Cumulative packet size per connected master and slave (bytes)
system.membus.pkt_size::total              1072170048                       # Cumulative packet size per connected master and slave (bytes)
system.membus.snoops                                0                       # Total snoops (count)
system.membus.snoop_fanout::samples          16783629                       # Request fanout histogram
system.membus.snoop_fanout::mean                    0                       # Request fanout histogram
system.membus.snoop_fanout::stdev                   0                       # Request fanout histogram
system.membus.snoop_fanout::underflows              0      0.00%      0.00% # Request fanout histogram
system.membus.snoop_fanout::0                16783629    100.00%    100.00% # Request fanout histogram
system.membus.snoop_fanout::1                       0      0.00%    100.00% # Request fanout histogram
system.membus.snoop_fanout::overflows               0      0.00%    100.00% # Request fanout histogram
system.membus.snoop_fanout::min_value               0                       # Request fanout histogram
system.membus.snoop_fanout::max_value               0                       # Request fanout histogram
system.membus.snoop_fanout::total            16783629                       # Request fanout histogram
system.membus.reqLayer2.occupancy         50191144500                       # Layer occupancy (ticks)
system.membus.reqLayer2.utilization               3.1                       # Layer utilization (%)
system.membus.respLayer1.occupancy        44210974250                       # Layer occupancy (ticks)
system.membus.respLayer1.utilization              2.7                       # Layer utilization (%)
system.tol2bus.snoop_filter.tot_requests     19902219                       # Total number of requests made to the snoop filter.
system.tol2bus.snoop_filter.hit_single_requests      9950068                       # Number of requests hitting in the snoop filter with a single holder of the requested data.
system.tol2bus.snoop_filter.hit_multi_requests            1                       # Number of requests hitting in the snoop filter with multiple (>1) holders of the requested data.
system.tol2bus.snoop_filter.tot_snoops          51197                       # Total number of snoops made to the snoop filter.
system.tol2bus.snoop_filter.hit_single_snoops        51197                       # Number of snoops hitting in the snoop filter with a single holder of the requested data.
system.tol2bus.snoop_filter.hit_multi_snoops            0                       # Number of snoops hitting in the snoop filter with multiple (>1) holders of the requested data.
system.tol2bus.trans_dist::ReadResp           1257608                       # Transaction distribution
system.tol2bus.trans_dist::WritebackDirty     17606750                       # Transaction distribution
system.tol2bus.trans_dist::WritebackClean           32                       # Transaction distribution
system.tol2bus.trans_dist::CleanEvict          761815                       # Transaction distribution
system.tol2bus.trans_dist::ReadExReq          8694543                       # Transaction distribution
system.tol2bus.trans_dist::ReadExResp         8694543                       # Transaction distribution
system.tol2bus.trans_dist::ReadCleanReq          1603                       # Transaction distribution
system.tol2bus.trans_dist::ReadSharedReq      1256005                       # Transaction distribution
system.tol2bus.pkt_count_system.cpu.icache.mem_side::system.l2.cpu_side         3238                       # Packet count per connected master and slave (bytes)
system.tol2bus.pkt_count_system.cpu.dcache.mem_side::system.l2.cpu_side     29851131                       # Packet count per connected master and slave (bytes)
system.tol2bus.pkt_count::total              29854369                       # Packet count per connected master and slave (bytes)
system.tol2bus.pkt_size_system.cpu.icache.mem_side::system.l2.cpu_side       104640                       # Cumulative packet size per connected master and slave (bytes)
system.tol2bus.pkt_size_system.cpu.dcache.mem_side::system.l2.cpu_side   1229147648                       # Cumulative packet size per connected master and slave (bytes)
system.tol2bus.pkt_size::total             1229252288                       # Cumulative packet size per connected master and slave (bytes)
system.tol2bus.snoops                         8418530                       # Total snoops (count)
system.tol2bus.snoop_fanout::samples         18370681                       # Request fanout histogram
system.tol2bus.snoop_fanout::mean            0.002787                       # Request fanout histogram
system.tol2bus.snoop_fanout::stdev           0.052718                       # Request fanout histogram
system.tol2bus.snoop_fanout::underflows             0      0.00%      0.00% # Request fanout histogram
system.tol2bus.snoop_fanout::0               18319483     99.72%     99.72% # Request fanout histogram
system.tol2bus.snoop_fanout::1                  51198      0.28%    100.00% # Request fanout histogram
system.tol2bus.snoop_fanout::2                      0      0.00%    100.00% # Request fanout histogram
system.tol2bus.snoop_fanout::3                      0      0.00%    100.00% # Request fanout histogram
system.tol2bus.snoop_fanout::4                      0      0.00%    100.00% # Request fanout histogram
system.tol2bus.snoop_fanout::overflows              0      0.00%    100.00% # Request fanout histogram
system.tol2bus.snoop_fanout::min_value              0                       # Request fanout histogram
system.tol2bus.snoop_fanout::max_value              1                       # Request fanout histogram
system.tol2bus.snoop_fanout::total           18370681                       # Request fanout histogram
system.tol2bus.reqLayer0.occupancy        19206025500                       # Layer occupancy (ticks)
system.tol2bus.reqLayer0.utilization              1.2                       # Layer utilization (%)
system.tol2bus.respLayer0.occupancy           2404500                       # Layer occupancy (ticks)
system.tol2bus.respLayer0.utilization             0.0                       # Layer utilization (%)
system.tol2bus.respLayer1.occupancy       14925822000                       # Layer occupancy (ticks)
system.tol2bus.respLayer1.utilization             0.9                       # Layer utilization (%)

---------- End Simulation Statistics   ----------
