
---------- Begin Simulation Statistics ----------
sim_seconds                                  2.254237                       # Number of seconds simulated
sim_ticks                                2254236963500                       # Number of ticks simulated
final_tick                               2254236963500                       # Number of ticks from beginning of simulation (restored from checkpoints and never reset)
sim_freq                                 1000000000000                       # Frequency of simulated ticks
host_inst_rate                                 163374                       # Simulator instruction rate (inst/s)
host_op_rate                                   269034                       # Simulator op (including micro ops) rate (op/s)
host_tick_rate                              736569034                       # Simulator tick rate (ticks/s)
host_mem_usage                                 835444                       # Number of bytes of host memory used
host_seconds                                  3060.46                       # Real time elapsed on the host
sim_insts                                   500000000                       # Number of instructions simulated
sim_ops                                     823366688                       # Number of ops (including micro ops) simulated
system.voltage_domain.voltage                       1                       # Voltage in Volts
system.clk_domain.clock                          1000                       # Clock period in ticks
system.mem_ctrls.bytes_read::cpu.inst           99680                       # Number of bytes read from this memory
system.mem_ctrls.bytes_read::cpu.data       534285472                       # Number of bytes read from this memory
system.mem_ctrls.bytes_read::total          534385152                       # Number of bytes read from this memory
system.mem_ctrls.bytes_inst_read::cpu.inst        99680                       # Number of instructions bytes read from this memory
system.mem_ctrls.bytes_inst_read::total         99680                       # Number of instructions bytes read from this memory
system.mem_ctrls.bytes_written::writebacks    532277824                       # Number of bytes written to this memory
system.mem_ctrls.bytes_written::total       532277824                       # Number of bytes written to this memory
system.mem_ctrls.num_reads::cpu.inst             3115                       # Number of read requests responded to by this memory
system.mem_ctrls.num_reads::cpu.data         16696421                       # Number of read requests responded to by this memory
system.mem_ctrls.num_reads::total            16699536                       # Number of read requests responded to by this memory
system.mem_ctrls.num_writes::writebacks      16633682                       # Number of write requests responded to by this memory
system.mem_ctrls.num_writes::total           16633682                       # Number of write requests responded to by this memory
system.mem_ctrls.bw_read::cpu.inst              44219                       # Total read bandwidth from this memory (bytes/s)
system.mem_ctrls.bw_read::cpu.data          237013890                       # Total read bandwidth from this memory (bytes/s)
system.mem_ctrls.bw_read::total             237058109                       # Total read bandwidth from this memory (bytes/s)
system.mem_ctrls.bw_inst_read::cpu.inst         44219                       # Instruction read bandwidth from this memory (bytes/s)
system.mem_ctrls.bw_inst_read::total            44219                       # Instruction read bandwidth from this memory (bytes/s)
system.mem_ctrls.bw_write::writebacks       236123279                       # Write bandwidth from this memory (bytes/s)
system.mem_ctrls.bw_write::total            236123279                       # Write bandwidth from this memory (bytes/s)
system.mem_ctrls.bw_total::writebacks       236123279                       # Total bandwidth to/from this memory (bytes/s)
system.mem_ctrls.bw_total::cpu.inst             44219                       # Total bandwidth to/from this memory (bytes/s)
system.mem_ctrls.bw_total::cpu.data         237013890                       # Total bandwidth to/from this memory (bytes/s)
system.mem_ctrls.bw_total::total            473181388                       # Total bandwidth to/from this memory (bytes/s)
system.mem_ctrls.readReqs                    16699536                       # Number of read requests accepted
system.mem_ctrls.writeReqs                   16633682                       # Number of write requests accepted
system.mem_ctrls.readBursts                  16699536                       # Number of DRAM read bursts, including those serviced by the write queue
system.mem_ctrls.writeBursts                 16633682                       # Number of DRAM write bursts, including those merged in the write queue
system.mem_ctrls.bytesReadDRAM             1068614528                       # Total number of bytes read from DRAM
system.mem_ctrls.bytesReadWrQ                  155776                       # Total number of bytes read from write queue
system.mem_ctrls.bytesWritten               534886080                       # Total number of bytes written to DRAM
system.mem_ctrls.bytesReadSys               534385152                       # Total read bytes from the system interface side
system.mem_ctrls.bytesWrittenSys            532277824                       # Total written bytes from the system interface side
system.mem_ctrls.servicedByWrQ                   2434                       # Number of DRAM read bursts serviced by the write queue
system.mem_ctrls.mergedWrBursts               8276067                       # Number of DRAM write bursts merged with an existing one
system.mem_ctrls.neitherReadNorWriteReqs        30801                       # Number of requests that are neither read nor write
system.mem_ctrls.perBankRdBursts::0           1041915                       # Per bank write bursts
system.mem_ctrls.perBankRdBursts::1           1041657                       # Per bank write bursts
system.mem_ctrls.perBankRdBursts::2           1042046                       # Per bank write bursts
system.mem_ctrls.perBankRdBursts::3           1045928                       # Per bank write bursts
system.mem_ctrls.perBankRdBursts::4           1059035                       # Per bank write bursts
system.mem_ctrls.perBankRdBursts::5           1043092                       # Per bank write bursts
system.mem_ctrls.perBankRdBursts::6           1041980                       # Per bank write bursts
system.mem_ctrls.perBankRdBursts::7           1042328                       # Per bank write bursts
system.mem_ctrls.perBankRdBursts::8           1041449                       # Per bank write bursts
system.mem_ctrls.perBankRdBursts::9           1042053                       # Per bank write bursts
system.mem_ctrls.perBankRdBursts::10          1042213                       # Per bank write bursts
system.mem_ctrls.perBankRdBursts::11          1042812                       # Per bank write bursts
system.mem_ctrls.perBankRdBursts::12          1042739                       # Per bank write bursts
system.mem_ctrls.perBankRdBursts::13          1042988                       # Per bank write bursts
system.mem_ctrls.perBankRdBursts::14          1042379                       # Per bank write bursts
system.mem_ctrls.perBankRdBursts::15          1042488                       # Per bank write bursts
system.mem_ctrls.perBankWrBursts::0            521928                       # Per bank write bursts
system.mem_ctrls.perBankWrBursts::1            521729                       # Per bank write bursts
system.mem_ctrls.perBankWrBursts::2            522046                       # Per bank write bursts
system.mem_ctrls.perBankWrBursts::3            524868                       # Per bank write bursts
system.mem_ctrls.perBankWrBursts::4            523813                       # Per bank write bursts
system.mem_ctrls.perBankWrBursts::5            522423                       # Per bank write bursts
system.mem_ctrls.perBankWrBursts::6            521887                       # Per bank write bursts
system.mem_ctrls.perBankWrBursts::7            522172                       # Per bank write bursts
system.mem_ctrls.perBankWrBursts::8            521778                       # Per bank write bursts
system.mem_ctrls.perBankWrBursts::9            521974                       # Per bank write bursts
system.mem_ctrls.perBankWrBursts::10           522062                       # Per bank write bursts
system.mem_ctrls.perBankWrBursts::11           522135                       # Per bank write bursts
system.mem_ctrls.perBankWrBursts::12           522250                       # Per bank write bursts
system.mem_ctrls.perBankWrBursts::13           522405                       # Per bank write bursts
system.mem_ctrls.perBankWrBursts::14           522090                       # Per bank write bursts
system.mem_ctrls.perBankWrBursts::15           522035                       # Per bank write bursts
system.mem_ctrls.numRdRetry                         0                       # Number of times read queue was full causing retry
system.mem_ctrls.numWrRetry                         0                       # Number of times write queue was full causing retry
system.mem_ctrls.totGap                  2254223777500                       # Total gap between requests
system.mem_ctrls.readPktSize::0                     0                       # Read request sizes (log2)
system.mem_ctrls.readPktSize::1                     0                       # Read request sizes (log2)
system.mem_ctrls.readPktSize::2                     0                       # Read request sizes (log2)
system.mem_ctrls.readPktSize::3                     0                       # Read request sizes (log2)
system.mem_ctrls.readPktSize::4                     0                       # Read request sizes (log2)
system.mem_ctrls.readPktSize::5              16699536                       # Read request sizes (log2)
system.mem_ctrls.readPktSize::6                     0                       # Read request sizes (log2)
system.mem_ctrls.writePktSize::0                    0                       # Write request sizes (log2)
system.mem_ctrls.writePktSize::1                    0                       # Write request sizes (log2)
system.mem_ctrls.writePktSize::2                    0                       # Write request sizes (log2)
system.mem_ctrls.writePktSize::3                    0                       # Write request sizes (log2)
system.mem_ctrls.writePktSize::4                    0                       # Write request sizes (log2)
system.mem_ctrls.writePktSize::5             16633682                       # Write request sizes (log2)
system.mem_ctrls.writePktSize::6                    0                       # Write request sizes (log2)
system.mem_ctrls.rdQLenPdf::0                16697101                       # What read queue length does an incoming req see
system.mem_ctrls.rdQLenPdf::1                       1                       # What read queue length does an incoming req see
system.mem_ctrls.rdQLenPdf::2                       0                       # What read queue length does an incoming req see
system.mem_ctrls.rdQLenPdf::3                       0                       # What read queue length does an incoming req see
system.mem_ctrls.rdQLenPdf::4                       0                       # What read queue length does an incoming req see
system.mem_ctrls.rdQLenPdf::5                       0                       # What read queue length does an incoming req see
system.mem_ctrls.rdQLenPdf::6                       0                       # What read queue length does an incoming req see
system.mem_ctrls.rdQLenPdf::7                       0                       # What read queue length does an incoming req see
system.mem_ctrls.rdQLenPdf::8                       0                       # What read queue length does an incoming req see
system.mem_ctrls.rdQLenPdf::9                       0                       # What read queue length does an incoming req see
system.mem_ctrls.rdQLenPdf::10                      0                       # What read queue length does an incoming req see
system.mem_ctrls.rdQLenPdf::11                      0                       # What read queue length does an incoming req see
system.mem_ctrls.rdQLenPdf::12                      0                       # What read queue length does an incoming req see
system.mem_ctrls.rdQLenPdf::13                      0                       # What read queue length does an incoming req see
system.mem_ctrls.rdQLenPdf::14                      0                       # What read queue length does an incoming req see
system.mem_ctrls.rdQLenPdf::15                      0                       # What read queue length does an incoming req see
system.mem_ctrls.rdQLenPdf::16                      0                       # What read queue length does an incoming req see
system.mem_ctrls.rdQLenPdf::17                      0                       # What read queue length does an incoming req see
system.mem_ctrls.rdQLenPdf::18                      0                       # What read queue length does an incoming req see
system.mem_ctrls.rdQLenPdf::19                      0                       # What read queue length does an incoming req see
system.mem_ctrls.rdQLenPdf::20                      0                       # What read queue length does an incoming req see
system.mem_ctrls.rdQLenPdf::21                      0                       # What read queue length does an incoming req see
system.mem_ctrls.rdQLenPdf::22                      0                       # What read queue length does an incoming req see
system.mem_ctrls.rdQLenPdf::23                      0                       # What read queue length does an incoming req see
system.mem_ctrls.rdQLenPdf::24                      0                       # What read queue length does an incoming req see
system.mem_ctrls.rdQLenPdf::25                      0                       # What read queue length does an incoming req see
system.mem_ctrls.rdQLenPdf::26                      0                       # What read queue length does an incoming req see
system.mem_ctrls.rdQLenPdf::27                      0                       # What read queue length does an incoming req see
system.mem_ctrls.rdQLenPdf::28                      0                       # What read queue length does an incoming req see
system.mem_ctrls.rdQLenPdf::29                      0                       # What read queue length does an incoming req see
system.mem_ctrls.rdQLenPdf::30                      0                       # What read queue length does an incoming req see
system.mem_ctrls.rdQLenPdf::31                      0                       # What read queue length does an incoming req see
system.mem_ctrls.wrQLenPdf::0                       1                       # What write queue length does an incoming req see
system.mem_ctrls.wrQLenPdf::1                       1                       # What write queue length does an incoming req see
system.mem_ctrls.wrQLenPdf::2                       1                       # What write queue length does an incoming req see
system.mem_ctrls.wrQLenPdf::3                       1                       # What write queue length does an incoming req see
system.mem_ctrls.wrQLenPdf::4                       1                       # What write queue length does an incoming req see
system.mem_ctrls.wrQLenPdf::5                       1                       # What write queue length does an incoming req see
system.mem_ctrls.wrQLenPdf::6                       1                       # What write queue length does an incoming req see
system.mem_ctrls.wrQLenPdf::7                       1                       # What write queue length does an incoming req see
system.mem_ctrls.wrQLenPdf::8                       1                       # What write queue length does an incoming req see
system.mem_ctrls.wrQLenPdf::9                       1                       # What write queue length does an incoming req see
system.mem_ctrls.wrQLenPdf::10                      1                       # What write queue length does an incoming req see
system.mem_ctrls.wrQLenPdf::11                      1                       # What write queue length does an incoming req see
system.mem_ctrls.wrQLenPdf::12                      1                       # What write queue length does an incoming req see
system.mem_ctrls.wrQLenPdf::13                      1                       # What write queue length does an incoming req see
system.mem_ctrls.wrQLenPdf::14                      1                       # What write queue length does an incoming req see
system.mem_ctrls.wrQLenPdf::15                   5830                       # What write queue length does an incoming req see
system.mem_ctrls.wrQLenPdf::16                   5838                       # What write queue length does an incoming req see
system.mem_ctrls.wrQLenPdf::17                 521590                       # What write queue length does an incoming req see
system.mem_ctrls.wrQLenPdf::18                 521621                       # What write queue length does an incoming req see
system.mem_ctrls.wrQLenPdf::19                 521620                       # What write queue length does an incoming req see
system.mem_ctrls.wrQLenPdf::20                 521617                       # What write queue length does an incoming req see
system.mem_ctrls.wrQLenPdf::21                 521618                       # What write queue length does an incoming req see
system.mem_ctrls.wrQLenPdf::22                 521617                       # What write queue length does an incoming req see
system.mem_ctrls.wrQLenPdf::23                 521618                       # What write queue length does an incoming req see
system.mem_ctrls.wrQLenPdf::24                 521620                       # What write queue length does an incoming req see
system.mem_ctrls.wrQLenPdf::25                 521620                       # What write queue length does an incoming req see
system.mem_ctrls.wrQLenPdf::26                 521619                       # What write queue length does an incoming req see
system.mem_ctrls.wrQLenPdf::27                 521627                       # What write queue length does an incoming req see
system.mem_ctrls.wrQLenPdf::28                 521672                       # What write queue length does an incoming req see
system.mem_ctrls.wrQLenPdf::29                 521619                       # What write queue length does an incoming req see
system.mem_ctrls.wrQLenPdf::30                 521620                       # What write queue length does an incoming req see
system.mem_ctrls.wrQLenPdf::31                 521617                       # What write queue length does an incoming req see
system.mem_ctrls.wrQLenPdf::32                 521617                       # What write queue length does an incoming req see
system.mem_ctrls.wrQLenPdf::33                      0                       # What write queue length does an incoming req see
system.mem_ctrls.wrQLenPdf::34                      0                       # What write queue length does an incoming req see
system.mem_ctrls.wrQLenPdf::35                      0                       # What write queue length does an incoming req see
system.mem_ctrls.wrQLenPdf::36                      0                       # What write queue length does an incoming req see
system.mem_ctrls.wrQLenPdf::37                      0                       # What write queue length does an incoming req see
system.mem_ctrls.wrQLenPdf::38                      0                       # What write queue length does an incoming req see
system.mem_ctrls.wrQLenPdf::39                      0                       # What write queue length does an incoming req see
system.mem_ctrls.wrQLenPdf::40                      0                       # What write queue length does an incoming req see
system.mem_ctrls.wrQLenPdf::41                      0                       # What write queue length does an incoming req see
system.mem_ctrls.wrQLenPdf::42                      0                       # What write queue length does an incoming req see
system.mem_ctrls.wrQLenPdf::43                      0                       # What write queue length does an incoming req see
system.mem_ctrls.wrQLenPdf::44                      0                       # What write queue length does an incoming req see
system.mem_ctrls.wrQLenPdf::45                      0                       # What write queue length does an incoming req see
system.mem_ctrls.wrQLenPdf::46                      0                       # What write queue length does an incoming req see
system.mem_ctrls.wrQLenPdf::47                      0                       # What write queue length does an incoming req see
system.mem_ctrls.wrQLenPdf::48                      0                       # What write queue length does an incoming req see
system.mem_ctrls.wrQLenPdf::49                      0                       # What write queue length does an incoming req see
system.mem_ctrls.wrQLenPdf::50                      0                       # What write queue length does an incoming req see
system.mem_ctrls.wrQLenPdf::51                      0                       # What write queue length does an incoming req see
system.mem_ctrls.wrQLenPdf::52                      0                       # What write queue length does an incoming req see
system.mem_ctrls.wrQLenPdf::53                      0                       # What write queue length does an incoming req see
system.mem_ctrls.wrQLenPdf::54                      0                       # What write queue length does an incoming req see
system.mem_ctrls.wrQLenPdf::55                      0                       # What write queue length does an incoming req see
system.mem_ctrls.wrQLenPdf::56                      0                       # What write queue length does an incoming req see
system.mem_ctrls.wrQLenPdf::57                      0                       # What write queue length does an incoming req see
system.mem_ctrls.wrQLenPdf::58                      0                       # What write queue length does an incoming req see
system.mem_ctrls.wrQLenPdf::59                      0                       # What write queue length does an incoming req see
system.mem_ctrls.wrQLenPdf::60                      0                       # What write queue length does an incoming req see
system.mem_ctrls.wrQLenPdf::61                      0                       # What write queue length does an incoming req see
system.mem_ctrls.wrQLenPdf::62                      0                       # What write queue length does an incoming req see
system.mem_ctrls.wrQLenPdf::63                      0                       # What write queue length does an incoming req see
system.mem_ctrls.bytesPerActivate::samples      2027307                       # Bytes accessed per row activation
system.mem_ctrls.bytesPerActivate::mean    790.951054                       # Bytes accessed per row activation
system.mem_ctrls.bytesPerActivate::gmean   603.195919                       # Bytes accessed per row activation
system.mem_ctrls.bytesPerActivate::stdev   361.635872                       # Bytes accessed per row activation
system.mem_ctrls.bytesPerActivate::0-127       249300     12.30%     12.30% # Bytes accessed per row activation
system.mem_ctrls.bytesPerActivate::128-255        86970      4.29%     16.59% # Bytes accessed per row activation
system.mem_ctrls.bytesPerActivate::256-383        45903      2.26%     18.85% # Bytes accessed per row activation
system.mem_ctrls.bytesPerActivate::384-511        82762      4.08%     22.93% # Bytes accessed per row activation
system.mem_ctrls.bytesPerActivate::512-639        80309      3.96%     26.89% # Bytes accessed per row activation
system.mem_ctrls.bytesPerActivate::640-767        44555      2.20%     29.09% # Bytes accessed per row activation
system.mem_ctrls.bytesPerActivate::768-895        71722      3.54%     32.63% # Bytes accessed per row activation
system.mem_ctrls.bytesPerActivate::896-1023        84314      4.16%     36.79% # Bytes accessed per row activation
system.mem_ctrls.bytesPerActivate::1024-1151      1281472     63.21%    100.00% # Bytes accessed per row activation
system.mem_ctrls.bytesPerActivate::total      2027307                       # Bytes accessed per row activation
system.mem_ctrls.rdPerTurnAround::samples       521617                       # Reads before turning the bus around for writes
system.mem_ctrls.rdPerTurnAround::mean      32.010258                       # Reads before turning the bus around for writes
system.mem_ctrls.rdPerTurnAround::gmean     31.930262                       # Reads before turning the bus around for writes
system.mem_ctrls.rdPerTurnAround::stdev     20.396020                       # Reads before turning the bus around for writes
system.mem_ctrls.rdPerTurnAround::0-511        521611    100.00%    100.00% # Reads before turning the bus around for writes
system.mem_ctrls.rdPerTurnAround::512-1023            1      0.00%    100.00% # Reads before turning the bus around for writes
system.mem_ctrls.rdPerTurnAround::2048-2559            1      0.00%    100.00% # Reads before turning the bus around for writes
system.mem_ctrls.rdPerTurnAround::3584-4095            1      0.00%    100.00% # Reads before turning the bus around for writes
system.mem_ctrls.rdPerTurnAround::4608-5119            1      0.00%    100.00% # Reads before turning the bus around for writes
system.mem_ctrls.rdPerTurnAround::7168-7679            1      0.00%    100.00% # Reads before turning the bus around for writes
system.mem_ctrls.rdPerTurnAround::10752-11263            1      0.00%    100.00% # Reads before turning the bus around for writes
system.mem_ctrls.rdPerTurnAround::total        521617                       # Reads before turning the bus around for writes
system.mem_ctrls.wrPerTurnAround::samples       521617                       # Writes before turning the bus around for reads
system.mem_ctrls.wrPerTurnAround::mean      16.022474                       # Writes before turning the bus around for reads
system.mem_ctrls.wrPerTurnAround::gmean     16.021183                       # Writes before turning the bus around for reads
system.mem_ctrls.wrPerTurnAround::stdev      0.211557                       # Writes before turning the bus around for reads
system.mem_ctrls.wrPerTurnAround::16           515780     98.88%     98.88% # Writes before turning the bus around for reads
system.mem_ctrls.wrPerTurnAround::17                8      0.00%     98.88% # Writes before turning the bus around for reads
system.mem_ctrls.wrPerTurnAround::18             5772      1.11%     99.99% # Writes before turning the bus around for reads
system.mem_ctrls.wrPerTurnAround::19               57      0.01%    100.00% # Writes before turning the bus around for reads
system.mem_ctrls.wrPerTurnAround::total        521617                       # Writes before turning the bus around for reads
system.mem_ctrls.totQLat                 122964169750                       # Total ticks spent queuing
system.mem_ctrls.totMemAccLat            436034832250                       # Total ticks spent from burst creation until serviced by the DRAM
system.mem_ctrls.totBusLat                83485510000                       # Total ticks spent in databus transfers
system.mem_ctrls.avgQLat                      7364.40                       # Average queueing delay per DRAM burst
system.mem_ctrls.avgBusLat                    5000.00                       # Average bus latency per DRAM burst
system.mem_ctrls.avgMemAccLat                26114.40                       # Average memory access latency per DRAM burst
system.mem_ctrls.avgRdBW                       474.05                       # Average DRAM read bandwidth in MiByte/s
system.mem_ctrls.avgWrBW                       237.28                       # Average achieved write bandwidth in MiByte/s
system.mem_ctrls.avgRdBWSys                    237.06                       # Average system read bandwidth in MiByte/s
system.mem_ctrls.avgWrBWSys                    236.12                       # Average system write bandwidth in MiByte/s
system.mem_ctrls.peakBW                      12800.00                       # Theoretical peak bandwidth in MiByte/s
system.mem_ctrls.busUtil                         5.56                       # Data bus utilization in percentage
system.mem_ctrls.busUtilRead                     3.70                       # Data bus utilization in percentage for reads
system.mem_ctrls.busUtilWrite                    1.85                       # Data bus utilization in percentage for writes
system.mem_ctrls.avgRdQLen                       1.00                       # Average read queue length when enqueuing
system.mem_ctrls.avgWrQLen                      25.34                       # Average write queue length when enqueuing
system.mem_ctrls.readRowHits                 15335444                       # Number of row buffer hits during reads
system.mem_ctrls.writeRowHits                 7691946                       # Number of row buffer hits during writes
system.mem_ctrls.readRowHitRate                 91.84                       # Row buffer hit rate for reads
system.mem_ctrls.writeRowHitRate                92.04                       # Row buffer hit rate for writes
system.mem_ctrls.avgGap                      67626.95                       # Average gap between requests
system.mem_ctrls.pageHitRate                    91.91                       # Row buffer hit rate, read and write combined
system.mem_ctrls_0.actEnergy               7711343640                       # Energy for activate commands per rank (pJ)
system.mem_ctrls_0.preEnergy               4207578375                       # Energy for precharge commands per rank (pJ)
system.mem_ctrls_0.readEnergy             65192251800                       # Energy for read commands per rank (pJ)
system.mem_ctrls_0.writeEnergy            27092011680                       # Energy for write commands per rank (pJ)
system.mem_ctrls_0.refreshEnergy         147235748400                       # Energy for refresh commands per rank (pJ)
system.mem_ctrls_0.actBackEnergy         633338803845                       # Energy for active background per rank (pJ)
system.mem_ctrls_0.preBackEnergy         796981494750                       # Energy for precharge background per rank (pJ)
system.mem_ctrls_0.totalEnergy           1681759232490                       # Total energy per rank (pJ)
system.mem_ctrls_0.averagePower            746.043858                       # Core power per rank (mW)
system.mem_ctrls_0.memoryStateTime::IDLE 1314300400250                       # Time in different power states
system.mem_ctrls_0.memoryStateTime::REF   75273900000                       # Time in different power states
system.mem_ctrls_0.memoryStateTime::PRE_PDN            0                       # Time in different power states
system.mem_ctrls_0.memoryStateTime::ACT  864662128500                       # Time in different power states
system.mem_ctrls_0.memoryStateTime::ACT_PDN            0                       # Time in different power states
system.mem_ctrls_1.actEnergy               7615097280                       # Energy for activate commands per rank (pJ)
system.mem_ctrls_1.preEnergy               4155063000                       # Energy for precharge commands per rank (pJ)
system.mem_ctrls_1.readEnergy             65045143800                       # Energy for read commands per rank (pJ)
system.mem_ctrls_1.writeEnergy            27065203920                       # Energy for write commands per rank (pJ)
system.mem_ctrls_1.refreshEnergy         147235748400                       # Energy for refresh commands per rank (pJ)
system.mem_ctrls_1.actBackEnergy         611003101905                       # Energy for active background per rank (pJ)
system.mem_ctrls_1.preBackEnergy         816574215750                       # Energy for precharge background per rank (pJ)
system.mem_ctrls_1.totalEnergy           1678693574055                       # Total energy per rank (pJ)
system.mem_ctrls_1.averagePower            744.683904                       # Core power per rank (mW)
system.mem_ctrls_1.memoryStateTime::IDLE 1347039450250                       # Time in different power states
system.mem_ctrls_1.memoryStateTime::REF   75273900000                       # Time in different power states
system.mem_ctrls_1.memoryStateTime::PRE_PDN            0                       # Time in different power states
system.mem_ctrls_1.memoryStateTime::ACT  831923078500                       # Time in different power states
system.mem_ctrls_1.memoryStateTime::ACT_PDN            0                       # Time in different power states
system.cpu_voltage_domain.voltage                   1                       # Voltage in Volts
system.cpu_clk_domain.clock                       500                       # Clock period in ticks
system.cpu.apic_clk_domain.clock                 8000                       # Clock period in ticks
system.cpu.workload.num_syscalls                  196                       # Number of system calls
system.cpu.numCycles                       4508473927                       # number of cpu cycles simulated
system.cpu.numWorkItemsStarted                      0                       # number of work items this cpu started
system.cpu.numWorkItemsCompleted                    0                       # number of work items this cpu completed
system.cpu.committedInsts                   500000000                       # Number of instructions committed
system.cpu.committedOps                     823366688                       # Number of ops (including micro ops) committed
system.cpu.num_int_alu_accesses             821415780                       # Number of integer alu accesses
system.cpu.num_fp_alu_accesses               66619254                       # Number of float alu accesses
system.cpu.num_func_calls                     5652773                       # number of times a function call or return occured
system.cpu.num_conditional_control_insts     57208851                       # number of instructions that are conditional controls
system.cpu.num_int_insts                    821415780                       # number of integer instructions
system.cpu.num_fp_insts                      66619254                       # number of float instructions
system.cpu.num_int_register_reads          1637209921                       # number of times the integer registers were read
system.cpu.num_int_register_writes          639871071                       # number of times the integer registers were written
system.cpu.num_fp_register_reads             66766844                       # number of times the floating registers were read
system.cpu.num_fp_register_writes              208042                       # number of times the floating registers were written
system.cpu.num_cc_register_reads            319714234                       # number of times the CC registers were read
system.cpu.num_cc_register_writes           287984020                       # number of times the CC registers were written
system.cpu.num_mem_refs                     271673944                       # number of memory refs
system.cpu.num_load_insts                   157213786                       # Number of load instructions
system.cpu.num_store_insts                  114460158                       # Number of store instructions
system.cpu.num_idle_cycles                          0                       # Number of idle cycles
system.cpu.num_busy_cycles                 4508473927                       # Number of busy cycles
system.cpu.not_idle_fraction                        1                       # Percentage of non-idle cycles
system.cpu.idle_fraction                            0                       # Percentage of idle cycles
system.cpu.Branches                          69678398                       # Number of branches fetched
system.cpu.op_class::No_OpClass                202233      0.02%      0.02% # Class of executed instruction
system.cpu.op_class::IntAlu                 550028809     66.80%     66.83% # Class of executed instruction
system.cpu.op_class::IntMult                   125092      0.02%     66.84% # Class of executed instruction
system.cpu.op_class::IntDiv                   1153479      0.14%     66.98% # Class of executed instruction
system.cpu.op_class::FloatAdd                  183131      0.02%     67.00% # Class of executed instruction
system.cpu.op_class::FloatCmp                       0      0.00%     67.00% # Class of executed instruction
system.cpu.op_class::FloatCvt                       0      0.00%     67.00% # Class of executed instruction
system.cpu.op_class::FloatMult                      0      0.00%     67.00% # Class of executed instruction
system.cpu.op_class::FloatDiv                       0      0.00%     67.00% # Class of executed instruction
system.cpu.op_class::FloatSqrt                      0      0.00%     67.00% # Class of executed instruction
system.cpu.op_class::SimdAdd                        0      0.00%     67.00% # Class of executed instruction
system.cpu.op_class::SimdAddAcc                     0      0.00%     67.00% # Class of executed instruction
system.cpu.op_class::SimdAlu                        0      0.00%     67.00% # Class of executed instruction
system.cpu.op_class::SimdCmp                        0      0.00%     67.00% # Class of executed instruction
system.cpu.op_class::SimdCvt                        0      0.00%     67.00% # Class of executed instruction
system.cpu.op_class::SimdMisc                       0      0.00%     67.00% # Class of executed instruction
system.cpu.op_class::SimdMult                       0      0.00%     67.00% # Class of executed instruction
system.cpu.op_class::SimdMultAcc                    0      0.00%     67.00% # Class of executed instruction
system.cpu.op_class::SimdShift                      0      0.00%     67.00% # Class of executed instruction
system.cpu.op_class::SimdShiftAcc                   0      0.00%     67.00% # Class of executed instruction
system.cpu.op_class::SimdSqrt                       0      0.00%     67.00% # Class of executed instruction
system.cpu.op_class::SimdFloatAdd                   0      0.00%     67.00% # Class of executed instruction
system.cpu.op_class::SimdFloatAlu                   0      0.00%     67.00% # Class of executed instruction
system.cpu.op_class::SimdFloatCmp                   0      0.00%     67.00% # Class of executed instruction
system.cpu.op_class::SimdFloatCvt                   0      0.00%     67.00% # Class of executed instruction
system.cpu.op_class::SimdFloatDiv                   0      0.00%     67.00% # Class of executed instruction
system.cpu.op_class::SimdFloatMisc                  0      0.00%     67.00% # Class of executed instruction
system.cpu.op_class::SimdFloatMult                  0      0.00%     67.00% # Class of executed instruction
system.cpu.op_class::SimdFloatMultAcc               0      0.00%     67.00% # Class of executed instruction
system.cpu.op_class::SimdFloatSqrt                  0      0.00%     67.00% # Class of executed instruction
system.cpu.op_class::MemRead                157213786     19.09%     86.10% # Class of executed instruction
system.cpu.op_class::MemWrite               114460158     13.90%    100.00% # Class of executed instruction
system.cpu.op_class::IprAccess                      0      0.00%    100.00% # Class of executed instruction
system.cpu.op_class::InstPrefetch                   0      0.00%    100.00% # Class of executed instruction
system.cpu.op_class::total                  823366688                       # Class of executed instruction
system.cpu.dcache.tags.replacements          17948149                       # number of replacements
system.cpu.dcache.tags.tagsinuse          1023.858730                       # Cycle average of tags in use
system.cpu.dcache.tags.total_refs           253725387                       # Total number of references to valid blocks.
system.cpu.dcache.tags.sampled_refs          17949173                       # Sample count of references to valid blocks.
system.cpu.dcache.tags.avg_refs             14.135770                       # Average number of references to valid blocks.
system.cpu.dcache.tags.warmup_cycle        3084118500                       # Cycle when the warmup percentage was hit.
system.cpu.dcache.tags.occ_blocks::cpu.data  1023.858730                       # Average occupied blocks per requestor
system.cpu.dcache.tags.occ_percent::cpu.data     0.999862                       # Average percentage of cache occupancy
system.cpu.dcache.tags.occ_percent::total     0.999862                       # Average percentage of cache occupancy
system.cpu.dcache.tags.occ_task_id_blocks::1024         1024                       # Occupied blocks per task id
system.cpu.dcache.tags.age_task_id_blocks_1024::0           10                       # Occupied blocks per task id
system.cpu.dcache.tags.age_task_id_blocks_1024::1           93                       # Occupied blocks per task id
system.cpu.dcache.tags.age_task_id_blocks_1024::2          216                       # Occupied blocks per task id
system.cpu.dcache.tags.age_task_id_blocks_1024::3          491                       # Occupied blocks per task id
system.cpu.dcache.tags.age_task_id_blocks_1024::4          214                       # Occupied blocks per task id
system.cpu.dcache.tags.occ_task_id_percent::1024            1                       # Percentage of cache occupancy per task id
system.cpu.dcache.tags.tag_accesses         289623733                       # Number of tag accesses
system.cpu.dcache.tags.data_accesses        289623733                       # Number of data accesses
system.cpu.dcache.ReadReq_hits::cpu.data    156297897                       # number of ReadReq hits
system.cpu.dcache.ReadReq_hits::total       156297897                       # number of ReadReq hits
system.cpu.dcache.WriteReq_hits::cpu.data     97427490                       # number of WriteReq hits
system.cpu.dcache.WriteReq_hits::total       97427490                       # number of WriteReq hits
system.cpu.dcache.demand_hits::cpu.data     253725387                       # number of demand (read+write) hits
system.cpu.dcache.demand_hits::total        253725387                       # number of demand (read+write) hits
system.cpu.dcache.overall_hits::cpu.data    253725387                       # number of overall hits
system.cpu.dcache.overall_hits::total       253725387                       # number of overall hits
system.cpu.dcache.ReadReq_misses::cpu.data       916493                       # number of ReadReq misses
system.cpu.dcache.ReadReq_misses::total        916493                       # number of ReadReq misses
system.cpu.dcache.WriteReq_misses::cpu.data     17032680                       # number of WriteReq misses
system.cpu.dcache.WriteReq_misses::total     17032680                       # number of WriteReq misses
system.cpu.dcache.demand_misses::cpu.data     17949173                       # number of demand (read+write) misses
system.cpu.dcache.demand_misses::total       17949173                       # number of demand (read+write) misses
system.cpu.dcache.overall_misses::cpu.data     17949173                       # number of overall misses
system.cpu.dcache.overall_misses::total      17949173                       # number of overall misses
system.cpu.dcache.ReadReq_miss_latency::cpu.data  19583994500                       # number of ReadReq miss cycles
system.cpu.dcache.ReadReq_miss_latency::total  19583994500                       # number of ReadReq miss cycles
system.cpu.dcache.WriteReq_miss_latency::cpu.data 1305263261500                       # number of WriteReq miss cycles
system.cpu.dcache.WriteReq_miss_latency::total 1305263261500                       # number of WriteReq miss cycles
system.cpu.dcache.demand_miss_latency::cpu.data 1324847256000                       # number of demand (read+write) miss cycles
system.cpu.dcache.demand_miss_latency::total 1324847256000                       # number of demand (read+write) miss cycles
system.cpu.dcache.overall_miss_latency::cpu.data 1324847256000                       # number of overall miss cycles
system.cpu.dcache.overall_miss_latency::total 1324847256000                       # number of overall miss cycles
system.cpu.dcache.ReadReq_accesses::cpu.data    157214390                       # number of ReadReq accesses(hits+misses)
system.cpu.dcache.ReadReq_accesses::total    157214390                       # number of ReadReq accesses(hits+misses)
system.cpu.dcache.WriteReq_accesses::cpu.data    114460170                       # number of WriteReq accesses(hits+misses)
system.cpu.dcache.WriteReq_accesses::total    114460170                       # number of WriteReq accesses(hits+misses)
system.cpu.dcache.demand_accesses::cpu.data    271674560                       # number of demand (read+write) accesses
system.cpu.dcache.demand_accesses::total    271674560                       # number of demand (read+write) accesses
system.cpu.dcache.overall_accesses::cpu.data    271674560                       # number of overall (read+write) accesses
system.cpu.dcache.overall_accesses::total    271674560                       # number of overall (read+write) accesses
system.cpu.dcache.ReadReq_miss_rate::cpu.data     0.005830                       # miss rate for ReadReq accesses
system.cpu.dcache.ReadReq_miss_rate::total     0.005830                       # miss rate for ReadReq accesses
system.cpu.dcache.WriteReq_miss_rate::cpu.data     0.148809                       # miss rate for WriteReq accesses
system.cpu.dcache.WriteReq_miss_rate::total     0.148809                       # miss rate for WriteReq accesses
system.cpu.dcache.demand_miss_rate::cpu.data     0.066069                       # miss rate for demand accesses
system.cpu.dcache.demand_miss_rate::total     0.066069                       # miss rate for demand accesses
system.cpu.dcache.overall_miss_rate::cpu.data     0.066069                       # miss rate for overall accesses
system.cpu.dcache.overall_miss_rate::total     0.066069                       # miss rate for overall accesses
system.cpu.dcache.ReadReq_avg_miss_latency::cpu.data 21368.405978                       # average ReadReq miss latency
system.cpu.dcache.ReadReq_avg_miss_latency::total 21368.405978                       # average ReadReq miss latency
system.cpu.dcache.WriteReq_avg_miss_latency::cpu.data 76632.876418                       # average WriteReq miss latency
system.cpu.dcache.WriteReq_avg_miss_latency::total 76632.876418                       # average WriteReq miss latency
system.cpu.dcache.demand_avg_miss_latency::cpu.data 73811.047228                       # average overall miss latency
system.cpu.dcache.demand_avg_miss_latency::total 73811.047228                       # average overall miss latency
system.cpu.dcache.overall_avg_miss_latency::cpu.data 73811.047228                       # average overall miss latency
system.cpu.dcache.overall_avg_miss_latency::total 73811.047228                       # average overall miss latency
system.cpu.dcache.blocked_cycles::no_mshrs            0                       # number of cycles access was blocked
system.cpu.dcache.blocked_cycles::no_targets            0                       # number of cycles access was blocked
system.cpu.dcache.blocked::no_mshrs                 0                       # number of cycles access was blocked
system.cpu.dcache.blocked::no_targets               0                       # number of cycles access was blocked
system.cpu.dcache.avg_blocked_cycles::no_mshrs          nan                       # average number of cycles each access was blocked
system.cpu.dcache.avg_blocked_cycles::no_targets          nan                       # average number of cycles each access was blocked
system.cpu.dcache.fast_writes                       0                       # number of fast writes performed
system.cpu.dcache.cache_copies                      0                       # number of cache copies performed
system.cpu.dcache.writebacks::writebacks     17457499                       # number of writebacks
system.cpu.dcache.writebacks::total          17457499                       # number of writebacks
system.cpu.dcache.ReadReq_mshr_misses::cpu.data       916493                       # number of ReadReq MSHR misses
system.cpu.dcache.ReadReq_mshr_misses::total       916493                       # number of ReadReq MSHR misses
system.cpu.dcache.WriteReq_mshr_misses::cpu.data     17032680                       # number of WriteReq MSHR misses
system.cpu.dcache.WriteReq_mshr_misses::total     17032680                       # number of WriteReq MSHR misses
system.cpu.dcache.demand_mshr_misses::cpu.data     17949173                       # number of demand (read+write) MSHR misses
system.cpu.dcache.demand_mshr_misses::total     17949173                       # number of demand (read+write) MSHR misses
system.cpu.dcache.overall_mshr_misses::cpu.data     17949173                       # number of overall MSHR misses
system.cpu.dcache.overall_mshr_misses::total     17949173                       # number of overall MSHR misses
system.cpu.dcache.ReadReq_mshr_miss_latency::cpu.data  18667501500                       # number of ReadReq MSHR miss cycles
system.cpu.dcache.ReadReq_mshr_miss_latency::total  18667501500                       # number of ReadReq MSHR miss cycles
system.cpu.dcache.WriteReq_mshr_miss_latency::cpu.data 1288230581500                       # number of WriteReq MSHR miss cycles
system.cpu.dcache.WriteReq_mshr_miss_latency::total 1288230581500                       # number of WriteReq MSHR miss cycles
system.cpu.dcache.demand_mshr_miss_latency::cpu.data 1306898083000                       # number of demand (read+write) MSHR miss cycles
system.cpu.dcache.demand_mshr_miss_latency::total 1306898083000                       # number of demand (read+write) MSHR miss cycles
system.cpu.dcache.overall_mshr_miss_latency::cpu.data 1306898083000                       # number of overall MSHR miss cycles
system.cpu.dcache.overall_mshr_miss_latency::total 1306898083000                       # number of overall MSHR miss cycles
system.cpu.dcache.ReadReq_mshr_miss_rate::cpu.data     0.005830                       # mshr miss rate for ReadReq accesses
system.cpu.dcache.ReadReq_mshr_miss_rate::total     0.005830                       # mshr miss rate for ReadReq accesses
system.cpu.dcache.WriteReq_mshr_miss_rate::cpu.data     0.148809                       # mshr miss rate for WriteReq accesses
system.cpu.dcache.WriteReq_mshr_miss_rate::total     0.148809                       # mshr miss rate for WriteReq accesses
system.cpu.dcache.demand_mshr_miss_rate::cpu.data     0.066069                       # mshr miss rate for demand accesses
system.cpu.dcache.demand_mshr_miss_rate::total     0.066069                       # mshr miss rate for demand accesses
system.cpu.dcache.overall_mshr_miss_rate::cpu.data     0.066069                       # mshr miss rate for overall accesses
system.cpu.dcache.overall_mshr_miss_rate::total     0.066069                       # mshr miss rate for overall accesses
system.cpu.dcache.ReadReq_avg_mshr_miss_latency::cpu.data 20368.405978                       # average ReadReq mshr miss latency
system.cpu.dcache.ReadReq_avg_mshr_miss_latency::total 20368.405978                       # average ReadReq mshr miss latency
system.cpu.dcache.WriteReq_avg_mshr_miss_latency::cpu.data 75632.876418                       # average WriteReq mshr miss latency
system.cpu.dcache.WriteReq_avg_mshr_miss_latency::total 75632.876418                       # average WriteReq mshr miss latency
system.cpu.dcache.demand_avg_mshr_miss_latency::cpu.data 72811.047228                       # average overall mshr miss latency
system.cpu.dcache.demand_avg_mshr_miss_latency::total 72811.047228                       # average overall mshr miss latency
system.cpu.dcache.overall_avg_mshr_miss_latency::cpu.data 72811.047228                       # average overall mshr miss latency
system.cpu.dcache.overall_avg_mshr_miss_latency::total 72811.047228                       # average overall mshr miss latency
system.cpu.dcache.no_allocate_misses                0                       # Number of misses that were no-allocate
system.cpu.dtb_walker_cache.tags.replacements            0                       # number of replacements
system.cpu.dtb_walker_cache.tags.tagsinuse            0                       # Cycle average of tags in use
system.cpu.dtb_walker_cache.tags.total_refs            0                       # Total number of references to valid blocks.
system.cpu.dtb_walker_cache.tags.sampled_refs            0                       # Sample count of references to valid blocks.
system.cpu.dtb_walker_cache.tags.avg_refs          nan                       # Average number of references to valid blocks.
system.cpu.dtb_walker_cache.tags.warmup_cycle            0                       # Cycle when the warmup percentage was hit.
system.cpu.dtb_walker_cache.tags.tag_accesses            0                       # Number of tag accesses
system.cpu.dtb_walker_cache.tags.data_accesses            0                       # Number of data accesses
system.cpu.dtb_walker_cache.blocked_cycles::no_mshrs            0                       # number of cycles access was blocked
system.cpu.dtb_walker_cache.blocked_cycles::no_targets            0                       # number of cycles access was blocked
system.cpu.dtb_walker_cache.blocked::no_mshrs            0                       # number of cycles access was blocked
system.cpu.dtb_walker_cache.blocked::no_targets            0                       # number of cycles access was blocked
system.cpu.dtb_walker_cache.avg_blocked_cycles::no_mshrs          nan                       # average number of cycles each access was blocked
system.cpu.dtb_walker_cache.avg_blocked_cycles::no_targets          nan                       # average number of cycles each access was blocked
system.cpu.dtb_walker_cache.fast_writes             0                       # number of fast writes performed
system.cpu.dtb_walker_cache.cache_copies            0                       # number of cache copies performed
system.cpu.dtb_walker_cache.no_allocate_misses            0                       # Number of misses that were no-allocate
system.cpu.icache.tags.replacements              5684                       # number of replacements
system.cpu.icache.tags.tagsinuse          1459.873388                       # Cycle average of tags in use
system.cpu.icache.tags.total_refs           675345514                       # Total number of references to valid blocks.
system.cpu.icache.tags.sampled_refs              8148                       # Sample count of references to valid blocks.
system.cpu.icache.tags.avg_refs          82884.820079                       # Average number of references to valid blocks.
system.cpu.icache.tags.warmup_cycle                 0                       # Cycle when the warmup percentage was hit.
system.cpu.icache.tags.occ_blocks::cpu.inst  1459.873388                       # Average occupied blocks per requestor
system.cpu.icache.tags.occ_percent::cpu.inst     0.356414                       # Average percentage of cache occupancy
system.cpu.icache.tags.occ_percent::total     0.356414                       # Average percentage of cache occupancy
system.cpu.icache.tags.occ_task_id_blocks::1024         2464                       # Occupied blocks per task id
system.cpu.icache.tags.age_task_id_blocks_1024::4         2464                       # Occupied blocks per task id
system.cpu.icache.tags.occ_task_id_percent::1024     0.601562                       # Percentage of cache occupancy per task id
system.cpu.icache.tags.tag_accesses         675361810                       # Number of tag accesses
system.cpu.icache.tags.data_accesses        675361810                       # Number of data accesses
system.cpu.icache.ReadReq_hits::cpu.inst    675345514                       # number of ReadReq hits
system.cpu.icache.ReadReq_hits::total       675345514                       # number of ReadReq hits
system.cpu.icache.demand_hits::cpu.inst     675345514                       # number of demand (read+write) hits
system.cpu.icache.demand_hits::total        675345514                       # number of demand (read+write) hits
system.cpu.icache.overall_hits::cpu.inst    675345514                       # number of overall hits
system.cpu.icache.overall_hits::total       675345514                       # number of overall hits
system.cpu.icache.ReadReq_misses::cpu.inst         8148                       # number of ReadReq misses
system.cpu.icache.ReadReq_misses::total          8148                       # number of ReadReq misses
system.cpu.icache.demand_misses::cpu.inst         8148                       # number of demand (read+write) misses
system.cpu.icache.demand_misses::total           8148                       # number of demand (read+write) misses
system.cpu.icache.overall_misses::cpu.inst         8148                       # number of overall misses
system.cpu.icache.overall_misses::total          8148                       # number of overall misses
system.cpu.icache.ReadReq_miss_latency::cpu.inst    319256000                       # number of ReadReq miss cycles
system.cpu.icache.ReadReq_miss_latency::total    319256000                       # number of ReadReq miss cycles
system.cpu.icache.demand_miss_latency::cpu.inst    319256000                       # number of demand (read+write) miss cycles
system.cpu.icache.demand_miss_latency::total    319256000                       # number of demand (read+write) miss cycles
system.cpu.icache.overall_miss_latency::cpu.inst    319256000                       # number of overall miss cycles
system.cpu.icache.overall_miss_latency::total    319256000                       # number of overall miss cycles
system.cpu.icache.ReadReq_accesses::cpu.inst    675353662                       # number of ReadReq accesses(hits+misses)
system.cpu.icache.ReadReq_accesses::total    675353662                       # number of ReadReq accesses(hits+misses)
system.cpu.icache.demand_accesses::cpu.inst    675353662                       # number of demand (read+write) accesses
system.cpu.icache.demand_accesses::total    675353662                       # number of demand (read+write) accesses
system.cpu.icache.overall_accesses::cpu.inst    675353662                       # number of overall (read+write) accesses
system.cpu.icache.overall_accesses::total    675353662                       # number of overall (read+write) accesses
system.cpu.icache.ReadReq_miss_rate::cpu.inst     0.000012                       # miss rate for ReadReq accesses
system.cpu.icache.ReadReq_miss_rate::total     0.000012                       # miss rate for ReadReq accesses
system.cpu.icache.demand_miss_rate::cpu.inst     0.000012                       # miss rate for demand accesses
system.cpu.icache.demand_miss_rate::total     0.000012                       # miss rate for demand accesses
system.cpu.icache.overall_miss_rate::cpu.inst     0.000012                       # miss rate for overall accesses
system.cpu.icache.overall_miss_rate::total     0.000012                       # miss rate for overall accesses
system.cpu.icache.ReadReq_avg_miss_latency::cpu.inst 39182.130584                       # average ReadReq miss latency
system.cpu.icache.ReadReq_avg_miss_latency::total 39182.130584                       # average ReadReq miss latency
system.cpu.icache.demand_avg_miss_latency::cpu.inst 39182.130584                       # average overall miss latency
system.cpu.icache.demand_avg_miss_latency::total 39182.130584                       # average overall miss latency
system.cpu.icache.overall_avg_miss_latency::cpu.inst 39182.130584                       # average overall miss latency
system.cpu.icache.overall_avg_miss_latency::total 39182.130584                       # average overall miss latency
system.cpu.icache.blocked_cycles::no_mshrs            0                       # number of cycles access was blocked
system.cpu.icache.blocked_cycles::no_targets            0                       # number of cycles access was blocked
system.cpu.icache.blocked::no_mshrs                 0                       # number of cycles access was blocked
system.cpu.icache.blocked::no_targets               0                       # number of cycles access was blocked
system.cpu.icache.avg_blocked_cycles::no_mshrs          nan                       # average number of cycles each access was blocked
system.cpu.icache.avg_blocked_cycles::no_targets          nan                       # average number of cycles each access was blocked
system.cpu.icache.fast_writes                       0                       # number of fast writes performed
system.cpu.icache.cache_copies                      0                       # number of cache copies performed
system.cpu.icache.writebacks::writebacks         5684                       # number of writebacks
system.cpu.icache.writebacks::total              5684                       # number of writebacks
system.cpu.icache.ReadReq_mshr_misses::cpu.inst         8148                       # number of ReadReq MSHR misses
system.cpu.icache.ReadReq_mshr_misses::total         8148                       # number of ReadReq MSHR misses
system.cpu.icache.demand_mshr_misses::cpu.inst         8148                       # number of demand (read+write) MSHR misses
system.cpu.icache.demand_mshr_misses::total         8148                       # number of demand (read+write) MSHR misses
system.cpu.icache.overall_mshr_misses::cpu.inst         8148                       # number of overall MSHR misses
system.cpu.icache.overall_mshr_misses::total         8148                       # number of overall MSHR misses
system.cpu.icache.ReadReq_mshr_miss_latency::cpu.inst    311108000                       # number of ReadReq MSHR miss cycles
system.cpu.icache.ReadReq_mshr_miss_latency::total    311108000                       # number of ReadReq MSHR miss cycles
system.cpu.icache.demand_mshr_miss_latency::cpu.inst    311108000                       # number of demand (read+write) MSHR miss cycles
system.cpu.icache.demand_mshr_miss_latency::total    311108000                       # number of demand (read+write) MSHR miss cycles
system.cpu.icache.overall_mshr_miss_latency::cpu.inst    311108000                       # number of overall MSHR miss cycles
system.cpu.icache.overall_mshr_miss_latency::total    311108000                       # number of overall MSHR miss cycles
system.cpu.icache.ReadReq_mshr_miss_rate::cpu.inst     0.000012                       # mshr miss rate for ReadReq accesses
system.cpu.icache.ReadReq_mshr_miss_rate::total     0.000012                       # mshr miss rate for ReadReq accesses
system.cpu.icache.demand_mshr_miss_rate::cpu.inst     0.000012                       # mshr miss rate for demand accesses
system.cpu.icache.demand_mshr_miss_rate::total     0.000012                       # mshr miss rate for demand accesses
system.cpu.icache.overall_mshr_miss_rate::cpu.inst     0.000012                       # mshr miss rate for overall accesses
system.cpu.icache.overall_mshr_miss_rate::total     0.000012                       # mshr miss rate for overall accesses
system.cpu.icache.ReadReq_avg_mshr_miss_latency::cpu.inst 38182.130584                       # average ReadReq mshr miss latency
system.cpu.icache.ReadReq_avg_mshr_miss_latency::total 38182.130584                       # average ReadReq mshr miss latency
system.cpu.icache.demand_avg_mshr_miss_latency::cpu.inst 38182.130584                       # average overall mshr miss latency
system.cpu.icache.demand_avg_mshr_miss_latency::total 38182.130584                       # average overall mshr miss latency
system.cpu.icache.overall_avg_mshr_miss_latency::cpu.inst 38182.130584                       # average overall mshr miss latency
system.cpu.icache.overall_avg_mshr_miss_latency::total 38182.130584                       # average overall mshr miss latency
system.cpu.icache.no_allocate_misses                0                       # Number of misses that were no-allocate
system.cpu.itb_walker_cache.tags.replacements            0                       # number of replacements
system.cpu.itb_walker_cache.tags.tagsinuse            0                       # Cycle average of tags in use
system.cpu.itb_walker_cache.tags.total_refs            0                       # Total number of references to valid blocks.
system.cpu.itb_walker_cache.tags.sampled_refs            0                       # Sample count of references to valid blocks.
system.cpu.itb_walker_cache.tags.avg_refs          nan                       # Average number of references to valid blocks.
system.cpu.itb_walker_cache.tags.warmup_cycle            0                       # Cycle when the warmup percentage was hit.
system.cpu.itb_walker_cache.tags.tag_accesses            0                       # Number of tag accesses
system.cpu.itb_walker_cache.tags.data_accesses            0                       # Number of data accesses
system.cpu.itb_walker_cache.blocked_cycles::no_mshrs            0                       # number of cycles access was blocked
system.cpu.itb_walker_cache.blocked_cycles::no_targets            0                       # number of cycles access was blocked
system.cpu.itb_walker_cache.blocked::no_mshrs            0                       # number of cycles access was blocked
system.cpu.itb_walker_cache.blocked::no_targets            0                       # number of cycles access was blocked
system.cpu.itb_walker_cache.avg_blocked_cycles::no_mshrs          nan                       # average number of cycles each access was blocked
system.cpu.itb_walker_cache.avg_blocked_cycles::no_targets          nan                       # average number of cycles each access was blocked
system.cpu.itb_walker_cache.fast_writes             0                       # number of fast writes performed
system.cpu.itb_walker_cache.cache_copies            0                       # number of cache copies performed
system.cpu.itb_walker_cache.no_allocate_misses            0                       # Number of misses that were no-allocate
system.l2.tags.replacements                  16701907                       # number of replacements
system.l2.tags.tagsinuse                 31906.305252                       # Cycle average of tags in use
system.l2.tags.total_refs                     2056825                       # Total number of references to valid blocks.
system.l2.tags.sampled_refs                  16734429                       # Sample count of references to valid blocks.
system.l2.tags.avg_refs                      0.122910                       # Average number of references to valid blocks.
system.l2.tags.warmup_cycle                         0                       # Cycle when the warmup percentage was hit.
system.l2.tags.occ_blocks::writebacks    25985.135609                       # Average occupied blocks per requestor
system.l2.tags.occ_blocks::cpu.inst        214.170421                       # Average occupied blocks per requestor
system.l2.tags.occ_blocks::cpu.data       5706.999222                       # Average occupied blocks per requestor
system.l2.tags.occ_percent::writebacks       0.793003                       # Average percentage of cache occupancy
system.l2.tags.occ_percent::cpu.inst         0.006536                       # Average percentage of cache occupancy
system.l2.tags.occ_percent::cpu.data         0.174164                       # Average percentage of cache occupancy
system.l2.tags.occ_percent::total            0.973703                       # Average percentage of cache occupancy
system.l2.tags.occ_task_id_blocks::1024         32522                       # Occupied blocks per task id
system.l2.tags.age_task_id_blocks_1024::0            3                       # Occupied blocks per task id
system.l2.tags.age_task_id_blocks_1024::1           50                       # Occupied blocks per task id
system.l2.tags.age_task_id_blocks_1024::2          203                       # Occupied blocks per task id
system.l2.tags.age_task_id_blocks_1024::3          999                       # Occupied blocks per task id
system.l2.tags.age_task_id_blocks_1024::4        31267                       # Occupied blocks per task id
system.l2.tags.occ_task_id_percent::1024     0.992493                       # Percentage of cache occupancy per task id
system.l2.tags.tag_accesses                  69678263                       # Number of tag accesses
system.l2.tags.data_accesses                 69678263                       # Number of data accesses
system.l2.WritebackDirty_hits::writebacks     17457499                       # number of WritebackDirty hits
system.l2.WritebackDirty_hits::total         17457499                       # number of WritebackDirty hits
system.l2.WritebackClean_hits::writebacks         5684                       # number of WritebackClean hits
system.l2.WritebackClean_hits::total             5684                       # number of WritebackClean hits
system.l2.ReadExReq_hits::cpu.data             437492                       # number of ReadExReq hits
system.l2.ReadExReq_hits::total                437492                       # number of ReadExReq hits
system.l2.ReadCleanReq_hits::cpu.inst            5033                       # number of ReadCleanReq hits
system.l2.ReadCleanReq_hits::total               5033                       # number of ReadCleanReq hits
system.l2.ReadSharedReq_hits::cpu.data         815260                       # number of ReadSharedReq hits
system.l2.ReadSharedReq_hits::total            815260                       # number of ReadSharedReq hits
system.l2.demand_hits::cpu.inst                  5033                       # number of demand (read+write) hits
system.l2.demand_hits::cpu.data               1252752                       # number of demand (read+write) hits
system.l2.demand_hits::total                  1257785                       # number of demand (read+write) hits
system.l2.overall_hits::cpu.inst                 5033                       # number of overall hits
system.l2.overall_hits::cpu.data              1252752                       # number of overall hits
system.l2.overall_hits::total                 1257785                       # number of overall hits
system.l2.ReadExReq_misses::cpu.data         16595188                       # number of ReadExReq misses
system.l2.ReadExReq_misses::total            16595188                       # number of ReadExReq misses
system.l2.ReadCleanReq_misses::cpu.inst          3115                       # number of ReadCleanReq misses
system.l2.ReadCleanReq_misses::total             3115                       # number of ReadCleanReq misses
system.l2.ReadSharedReq_misses::cpu.data       101233                       # number of ReadSharedReq misses
system.l2.ReadSharedReq_misses::total          101233                       # number of ReadSharedReq misses
system.l2.demand_misses::cpu.inst                3115                       # number of demand (read+write) misses
system.l2.demand_misses::cpu.data            16696421                       # number of demand (read+write) misses
system.l2.demand_misses::total               16699536                       # number of demand (read+write) misses
system.l2.overall_misses::cpu.inst               3115                       # number of overall misses
system.l2.overall_misses::cpu.data           16696421                       # number of overall misses
system.l2.overall_misses::total              16699536                       # number of overall misses
system.l2.ReadExReq_miss_latency::cpu.data 1258087895500                       # number of ReadExReq miss cycles
system.l2.ReadExReq_miss_latency::total  1258087895500                       # number of ReadExReq miss cycles
system.l2.ReadCleanReq_miss_latency::cpu.inst    246039500                       # number of ReadCleanReq miss cycles
system.l2.ReadCleanReq_miss_latency::total    246039500                       # number of ReadCleanReq miss cycles
system.l2.ReadSharedReq_miss_latency::cpu.data   8732531500                       # number of ReadSharedReq miss cycles
system.l2.ReadSharedReq_miss_latency::total   8732531500                       # number of ReadSharedReq miss cycles
system.l2.demand_miss_latency::cpu.inst     246039500                       # number of demand (read+write) miss cycles
system.l2.demand_miss_latency::cpu.data  1266820427000                       # number of demand (read+write) miss cycles
system.l2.demand_miss_latency::total     1267066466500                       # number of demand (read+write) miss cycles
system.l2.overall_miss_latency::cpu.inst    246039500                       # number of overall miss cycles
system.l2.overall_miss_latency::cpu.data 1266820427000                       # number of overall miss cycles
system.l2.overall_miss_latency::total    1267066466500                       # number of overall miss cycles
system.l2.WritebackDirty_accesses::writebacks     17457499                       # number of WritebackDirty accesses(hits+misses)
system.l2.WritebackDirty_accesses::total     17457499                       # number of WritebackDirty accesses(hits+misses)
system.l2.WritebackClean_accesses::writebacks         5684                       # number of WritebackClean accesses(hits+misses)
system.l2.WritebackClean_accesses::total         5684                       # number of WritebackClean accesses(hits+misses)
system.l2.ReadExReq_accesses::cpu.data       17032680                       # number of ReadExReq accesses(hits+misses)
system.l2.ReadExReq_accesses::total          17032680                       # number of ReadExReq accesses(hits+misses)
system.l2.ReadCleanReq_accesses::cpu.inst         8148                       # number of ReadCleanReq accesses(hits+misses)
system.l2.ReadCleanReq_accesses::total           8148                       # number of ReadCleanReq accesses(hits+misses)
system.l2.ReadSharedReq_accesses::cpu.data       916493                       # number of ReadSharedReq accesses(hits+misses)
system.l2.ReadSharedReq_accesses::total        916493                       # number of ReadSharedReq accesses(hits+misses)
system.l2.demand_accesses::cpu.inst              8148                       # number of demand (read+write) accesses
system.l2.demand_accesses::cpu.data          17949173                       # number of demand (read+write) accesses
system.l2.demand_accesses::total             17957321                       # number of demand (read+write) accesses
system.l2.overall_accesses::cpu.inst             8148                       # number of overall (read+write) accesses
system.l2.overall_accesses::cpu.data         17949173                       # number of overall (read+write) accesses
system.l2.overall_accesses::total            17957321                       # number of overall (read+write) accesses
system.l2.ReadExReq_miss_rate::cpu.data      0.974315                       # miss rate for ReadExReq accesses
system.l2.ReadExReq_miss_rate::total         0.974315                       # miss rate for ReadExReq accesses
system.l2.ReadCleanReq_miss_rate::cpu.inst     0.382302                       # miss rate for ReadCleanReq accesses
system.l2.ReadCleanReq_miss_rate::total      0.382302                       # miss rate for ReadCleanReq accesses
system.l2.ReadSharedReq_miss_rate::cpu.data     0.110457                       # miss rate for ReadSharedReq accesses
system.l2.ReadSharedReq_miss_rate::total     0.110457                       # miss rate for ReadSharedReq accesses
system.l2.demand_miss_rate::cpu.inst         0.382302                       # miss rate for demand accesses
system.l2.demand_miss_rate::cpu.data         0.930206                       # miss rate for demand accesses
system.l2.demand_miss_rate::total            0.929957                       # miss rate for demand accesses
system.l2.overall_miss_rate::cpu.inst        0.382302                       # miss rate for overall accesses
system.l2.overall_miss_rate::cpu.data        0.930206                       # miss rate for overall accesses
system.l2.overall_miss_rate::total           0.929957                       # miss rate for overall accesses
system.l2.ReadExReq_avg_miss_latency::cpu.data 75810.403323                       # average ReadExReq miss latency
system.l2.ReadExReq_avg_miss_latency::total 75810.403323                       # average ReadExReq miss latency
system.l2.ReadCleanReq_avg_miss_latency::cpu.inst 78985.393258                       # average ReadCleanReq miss latency
system.l2.ReadCleanReq_avg_miss_latency::total 78985.393258                       # average ReadCleanReq miss latency
system.l2.ReadSharedReq_avg_miss_latency::cpu.data 86261.708139                       # average ReadSharedReq miss latency
system.l2.ReadSharedReq_avg_miss_latency::total 86261.708139                       # average ReadSharedReq miss latency
system.l2.demand_avg_miss_latency::cpu.inst 78985.393258                       # average overall miss latency
system.l2.demand_avg_miss_latency::cpu.data 75873.771211                       # average overall miss latency
system.l2.demand_avg_miss_latency::total 75874.351629                       # average overall miss latency
system.l2.overall_avg_miss_latency::cpu.inst 78985.393258                       # average overall miss latency
system.l2.overall_avg_miss_latency::cpu.data 75873.771211                       # average overall miss latency
system.l2.overall_avg_miss_latency::total 75874.351629                       # average overall miss latency
system.l2.blocked_cycles::no_mshrs                  0                       # number of cycles access was blocked
system.l2.blocked_cycles::no_targets                0                       # number of cycles access was blocked
system.l2.blocked::no_mshrs                         0                       # number of cycles access was blocked
system.l2.blocked::no_targets                       0                       # number of cycles access was blocked
system.l2.avg_blocked_cycles::no_mshrs            nan                       # average number of cycles each access was blocked
system.l2.avg_blocked_cycles::no_targets          nan                       # average number of cycles each access was blocked
system.l2.fast_writes                               0                       # number of fast writes performed
system.l2.cache_copies                              0                       # number of cache copies performed
system.l2.writebacks::writebacks             16633682                       # number of writebacks
system.l2.writebacks::total                  16633682                       # number of writebacks
system.l2.CleanEvict_mshr_misses::writebacks        17559                       # number of CleanEvict MSHR misses
system.l2.CleanEvict_mshr_misses::total         17559                       # number of CleanEvict MSHR misses
system.l2.ReadExReq_mshr_misses::cpu.data     16595188                       # number of ReadExReq MSHR misses
system.l2.ReadExReq_mshr_misses::total       16595188                       # number of ReadExReq MSHR misses
system.l2.ReadCleanReq_mshr_misses::cpu.inst         3115                       # number of ReadCleanReq MSHR misses
system.l2.ReadCleanReq_mshr_misses::total         3115                       # number of ReadCleanReq MSHR misses
system.l2.ReadSharedReq_mshr_misses::cpu.data       101233                       # number of ReadSharedReq MSHR misses
system.l2.ReadSharedReq_mshr_misses::total       101233                       # number of ReadSharedReq MSHR misses
system.l2.demand_mshr_misses::cpu.inst           3115                       # number of demand (read+write) MSHR misses
system.l2.demand_mshr_misses::cpu.data       16696421                       # number of demand (read+write) MSHR misses
system.l2.demand_mshr_misses::total          16699536                       # number of demand (read+write) MSHR misses
system.l2.overall_mshr_misses::cpu.inst          3115                       # number of overall MSHR misses
system.l2.overall_mshr_misses::cpu.data      16696421                       # number of overall MSHR misses
system.l2.overall_mshr_misses::total         16699536                       # number of overall MSHR misses
system.l2.ReadExReq_mshr_miss_latency::cpu.data 1092136015500                       # number of ReadExReq MSHR miss cycles
system.l2.ReadExReq_mshr_miss_latency::total 1092136015500                       # number of ReadExReq MSHR miss cycles
system.l2.ReadCleanReq_mshr_miss_latency::cpu.inst    214889500                       # number of ReadCleanReq MSHR miss cycles
system.l2.ReadCleanReq_mshr_miss_latency::total    214889500                       # number of ReadCleanReq MSHR miss cycles
system.l2.ReadSharedReq_mshr_miss_latency::cpu.data   7720201500                       # number of ReadSharedReq MSHR miss cycles
system.l2.ReadSharedReq_mshr_miss_latency::total   7720201500                       # number of ReadSharedReq MSHR miss cycles
system.l2.demand_mshr_miss_latency::cpu.inst    214889500                       # number of demand (read+write) MSHR miss cycles
system.l2.demand_mshr_miss_latency::cpu.data 1099856217000                       # number of demand (read+write) MSHR miss cycles
system.l2.demand_mshr_miss_latency::total 1100071106500                       # number of demand (read+write) MSHR miss cycles
system.l2.overall_mshr_miss_latency::cpu.inst    214889500                       # number of overall MSHR miss cycles
system.l2.overall_mshr_miss_latency::cpu.data 1099856217000                       # number of overall MSHR miss cycles
system.l2.overall_mshr_miss_latency::total 1100071106500                       # number of overall MSHR miss cycles
system.l2.CleanEvict_mshr_miss_rate::writebacks          inf                       # mshr miss rate for CleanEvict accesses
system.l2.CleanEvict_mshr_miss_rate::total          inf                       # mshr miss rate for CleanEvict accesses
system.l2.ReadExReq_mshr_miss_rate::cpu.data     0.974315                       # mshr miss rate for ReadExReq accesses
system.l2.ReadExReq_mshr_miss_rate::total     0.974315                       # mshr miss rate for ReadExReq accesses
system.l2.ReadCleanReq_mshr_miss_rate::cpu.inst     0.382302                       # mshr miss rate for ReadCleanReq accesses
system.l2.ReadCleanReq_mshr_miss_rate::total     0.382302                       # mshr miss rate for ReadCleanReq accesses
system.l2.ReadSharedReq_mshr_miss_rate::cpu.data     0.110457                       # mshr miss rate for ReadSharedReq accesses
system.l2.ReadSharedReq_mshr_miss_rate::total     0.110457                       # mshr miss rate for ReadSharedReq accesses
system.l2.demand_mshr_miss_rate::cpu.inst     0.382302                       # mshr miss rate for demand accesses
system.l2.demand_mshr_miss_rate::cpu.data     0.930206                       # mshr miss rate for demand accesses
system.l2.demand_mshr_miss_rate::total       0.929957                       # mshr miss rate for demand accesses
system.l2.overall_mshr_miss_rate::cpu.inst     0.382302                       # mshr miss rate for overall accesses
system.l2.overall_mshr_miss_rate::cpu.data     0.930206                       # mshr miss rate for overall accesses
system.l2.overall_mshr_miss_rate::total      0.929957                       # mshr miss rate for overall accesses
system.l2.ReadExReq_avg_mshr_miss_latency::cpu.data 65810.403323                       # average ReadExReq mshr miss latency
system.l2.ReadExReq_avg_mshr_miss_latency::total 65810.403323                       # average ReadExReq mshr miss latency
system.l2.ReadCleanReq_avg_mshr_miss_latency::cpu.inst 68985.393258                       # average ReadCleanReq mshr miss latency
system.l2.ReadCleanReq_avg_mshr_miss_latency::total 68985.393258                       # average ReadCleanReq mshr miss latency
system.l2.ReadSharedReq_avg_mshr_miss_latency::cpu.data 76261.708139                       # average ReadSharedReq mshr miss latency
system.l2.ReadSharedReq_avg_mshr_miss_latency::total 76261.708139                       # average ReadSharedReq mshr miss latency
system.l2.demand_avg_mshr_miss_latency::cpu.inst 68985.393258                       # average overall mshr miss latency
system.l2.demand_avg_mshr_miss_latency::cpu.data 65873.771211                       # average overall mshr miss latency
system.l2.demand_avg_mshr_miss_latency::total 65874.351629                       # average overall mshr miss latency
system.l2.overall_avg_mshr_miss_latency::cpu.inst 68985.393258                       # average overall mshr miss latency
system.l2.overall_avg_mshr_miss_latency::cpu.data 65873.771211                       # average overall mshr miss latency
system.l2.overall_avg_mshr_miss_latency::total 65874.351629                       # average overall mshr miss latency
system.l2.no_allocate_misses                        0                       # Number of misses that were no-allocate
system.membus.trans_dist::ReadResp             104348                       # Transaction distribution
system.membus.trans_dist::WritebackDirty     16633682                       # Transaction distribution
system.membus.trans_dist::CleanEvict            30801                       # Transaction distribution
system.membus.trans_dist::ReadExReq          16595188                       # Transaction distribution
system.membus.trans_dist::ReadExResp         16595188                       # Transaction distribution
system.membus.trans_dist::ReadSharedReq        104348                       # Transaction distribution
system.membus.pkt_count_system.l2.mem_side::system.mem_ctrls.port     50063555                       # Packet count per connected master and slave (bytes)
system.membus.pkt_count_system.l2.mem_side::total     50063555                       # Packet count per connected master and slave (bytes)
system.membus.pkt_count::total               50063555                       # Packet count per connected master and slave (bytes)
system.membus.pkt_size_system.l2.mem_side::system.mem_ctrls.port   1066662976                       # Cumulative packet size per connected master and slave (bytes)
system.membus.pkt_size_system.l2.mem_side::total   1066662976                       # Cumulative packet size per connected master and slave (bytes)
system.membus.pkt_size::total              1066662976                       # Cumulative packet size per connected master and slave (bytes)
system.membus.snoops                                0                       # Total snoops (count)
system.membus.snoop_fanout::samples          33364019                       # Request fanout histogram
system.membus.snoop_fanout::mean                    0                       # Request fanout histogram
system.membus.snoop_fanout::stdev                   0                       # Request fanout histogram
system.membus.snoop_fanout::underflows              0      0.00%      0.00% # Request fanout histogram
system.membus.snoop_fanout::0                33364019    100.00%    100.00% # Request fanout histogram
system.membus.snoop_fanout::1                       0      0.00%    100.00% # Request fanout histogram
system.membus.snoop_fanout::overflows               0      0.00%    100.00% # Request fanout histogram
system.membus.snoop_fanout::min_value               0                       # Request fanout histogram
system.membus.snoop_fanout::max_value               0                       # Request fanout histogram
system.membus.snoop_fanout::total            33364019                       # Request fanout histogram
system.membus.reqLayer2.occupancy         66631422500                       # Layer occupancy (ticks)
system.membus.reqLayer2.utilization               3.0                       # Layer utilization (%)
system.membus.respLayer1.occupancy        54527418750                       # Layer occupancy (ticks)
system.membus.respLayer1.utilization              2.4                       # Layer utilization (%)
system.tol2bus.snoop_filter.tot_requests     35911154                       # Total number of requests made to the snoop filter.
system.tol2bus.snoop_filter.hit_single_requests     17953833                       # Number of requests hitting in the snoop filter with a single holder of the requested data.
system.tol2bus.snoop_filter.hit_multi_requests            0                       # Number of requests hitting in the snoop filter with multiple (>1) holders of the requested data.
system.tol2bus.snoop_filter.tot_snoops          54983                       # Total number of snoops made to the snoop filter.
system.tol2bus.snoop_filter.hit_single_snoops        54983                       # Number of snoops hitting in the snoop filter with a single holder of the requested data.
system.tol2bus.snoop_filter.hit_multi_snoops            0                       # Number of snoops hitting in the snoop filter with multiple (>1) holders of the requested data.
system.tol2bus.trans_dist::ReadResp            924641                       # Transaction distribution
system.tol2bus.trans_dist::WritebackDirty     34091181                       # Transaction distribution
system.tol2bus.trans_dist::WritebackClean         5684                       # Transaction distribution
system.tol2bus.trans_dist::CleanEvict          558875                       # Transaction distribution
system.tol2bus.trans_dist::ReadExReq         17032680                       # Transaction distribution
system.tol2bus.trans_dist::ReadExResp        17032680                       # Transaction distribution
system.tol2bus.trans_dist::ReadCleanReq          8148                       # Transaction distribution
system.tol2bus.trans_dist::ReadSharedReq       916493                       # Transaction distribution
system.tol2bus.pkt_count_system.cpu.icache.mem_side::system.l2.cpu_side        21980                       # Packet count per connected master and slave (bytes)
system.tol2bus.pkt_count_system.cpu.dcache.mem_side::system.l2.cpu_side     53846495                       # Packet count per connected master and slave (bytes)
system.tol2bus.pkt_count::total              53868475                       # Packet count per connected master and slave (bytes)
system.tol2bus.pkt_size_system.cpu.icache.mem_side::system.l2.cpu_side       442624                       # Cumulative packet size per connected master and slave (bytes)
system.tol2bus.pkt_size_system.cpu.dcache.mem_side::system.l2.cpu_side   1133013504                       # Cumulative packet size per connected master and slave (bytes)
system.tol2bus.pkt_size::total             1133456128                       # Cumulative packet size per connected master and slave (bytes)
system.tol2bus.snoops                        16701907                       # Total snoops (count)
system.tol2bus.snoop_fanout::samples         34659228                       # Request fanout histogram
system.tol2bus.snoop_fanout::mean            0.001586                       # Request fanout histogram
system.tol2bus.snoop_fanout::stdev           0.039798                       # Request fanout histogram
system.tol2bus.snoop_fanout::underflows             0      0.00%      0.00% # Request fanout histogram
system.tol2bus.snoop_fanout::0               34604245     99.84%     99.84% # Request fanout histogram
system.tol2bus.snoop_fanout::1                  54983      0.16%    100.00% # Request fanout histogram
system.tol2bus.snoop_fanout::2                      0      0.00%    100.00% # Request fanout histogram
system.tol2bus.snoop_fanout::3                      0      0.00%    100.00% # Request fanout histogram
system.tol2bus.snoop_fanout::4                      0      0.00%    100.00% # Request fanout histogram
system.tol2bus.snoop_fanout::overflows              0      0.00%    100.00% # Request fanout histogram
system.tol2bus.snoop_fanout::min_value              0                       # Request fanout histogram
system.tol2bus.snoop_fanout::max_value              1                       # Request fanout histogram
system.tol2bus.snoop_fanout::total           34659228                       # Request fanout histogram
system.tol2bus.reqLayer0.occupancy        26687168500                       # Layer occupancy (ticks)
system.tol2bus.reqLayer0.utilization              1.2                       # Layer utilization (%)
system.tol2bus.respLayer0.occupancy           8148000                       # Layer occupancy (ticks)
system.tol2bus.respLayer0.utilization             0.0                       # Layer utilization (%)
system.tol2bus.respLayer1.occupancy       17949173000                       # Layer occupancy (ticks)
system.tol2bus.respLayer1.utilization             0.8                       # Layer utilization (%)

---------- End Simulation Statistics   ----------
