
---------- Begin Simulation Statistics ----------
sim_seconds                                  2.253733                       # Number of seconds simulated
sim_ticks                                2253732556500                       # Number of ticks simulated
final_tick                               2253732556500                       # Number of ticks from beginning of simulation (restored from checkpoints and never reset)
sim_freq                                 1000000000000                       # Frequency of simulated ticks
host_inst_rate                                 176782                       # Simulator instruction rate (inst/s)
host_op_rate                                   291113                       # Simulator op (including micro ops) rate (op/s)
host_tick_rate                              796838625                       # Simulator tick rate (ticks/s)
host_mem_usage                                 835444                       # Number of bytes of host memory used
host_seconds                                  2828.34                       # Real time elapsed on the host
sim_insts                                   500000000                       # Number of instructions simulated
sim_ops                                     823366688                       # Number of ops (including micro ops) simulated
system.voltage_domain.voltage                       1                       # Voltage in Volts
system.clk_domain.clock                          1000                       # Clock period in ticks
system.mem_ctrls.bytes_read::cpu.inst           99072                       # Number of bytes read from this memory
system.mem_ctrls.bytes_read::cpu.data       534288608                       # Number of bytes read from this memory
system.mem_ctrls.bytes_read::total          534387680                       # Number of bytes read from this memory
system.mem_ctrls.bytes_inst_read::cpu.inst        99072                       # Number of instructions bytes read from this memory
system.mem_ctrls.bytes_inst_read::total         99072                       # Number of instructions bytes read from this memory
system.mem_ctrls.bytes_written::writebacks    532280864                       # Number of bytes written to this memory
system.mem_ctrls.bytes_written::total       532280864                       # Number of bytes written to this memory
system.mem_ctrls.num_reads::cpu.inst             3096                       # Number of read requests responded to by this memory
system.mem_ctrls.num_reads::cpu.data         16696519                       # Number of read requests responded to by this memory
system.mem_ctrls.num_reads::total            16699615                       # Number of read requests responded to by this memory
system.mem_ctrls.num_writes::writebacks      16633777                       # Number of write requests responded to by this memory
system.mem_ctrls.num_writes::total           16633777                       # Number of write requests responded to by this memory
system.mem_ctrls.bw_read::cpu.inst              43959                       # Total read bandwidth from this memory (bytes/s)
system.mem_ctrls.bw_read::cpu.data          237068328                       # Total read bandwidth from this memory (bytes/s)
system.mem_ctrls.bw_read::total             237112287                       # Total read bandwidth from this memory (bytes/s)
system.mem_ctrls.bw_inst_read::cpu.inst         43959                       # Instruction read bandwidth from this memory (bytes/s)
system.mem_ctrls.bw_inst_read::total            43959                       # Instruction read bandwidth from this memory (bytes/s)
system.mem_ctrls.bw_write::writebacks       236177475                       # Write bandwidth from this memory (bytes/s)
system.mem_ctrls.bw_write::total            236177475                       # Write bandwidth from this memory (bytes/s)
system.mem_ctrls.bw_total::writebacks       236177475                       # Total bandwidth to/from this memory (bytes/s)
system.mem_ctrls.bw_total::cpu.inst             43959                       # Total bandwidth to/from this memory (bytes/s)
system.mem_ctrls.bw_total::cpu.data         237068328                       # Total bandwidth to/from this memory (bytes/s)
system.mem_ctrls.bw_total::total            473289761                       # Total bandwidth to/from this memory (bytes/s)
system.mem_ctrls.readReqs                    16699615                       # Number of read requests accepted
system.mem_ctrls.writeReqs                   16633777                       # Number of write requests accepted
system.mem_ctrls.readBursts                  16699615                       # Number of DRAM read bursts, including those serviced by the write queue
system.mem_ctrls.writeBursts                 16633777                       # Number of DRAM write bursts, including those merged in the write queue
system.mem_ctrls.bytesReadDRAM             1068617600                       # Total number of bytes read from DRAM
system.mem_ctrls.bytesReadWrQ                  157760                       # Total number of bytes read from write queue
system.mem_ctrls.bytesWritten               534896320                       # Total number of bytes written to DRAM
system.mem_ctrls.bytesReadSys               534387680                       # Total read bytes from the system interface side
system.mem_ctrls.bytesWrittenSys            532280864                       # Total written bytes from the system interface side
system.mem_ctrls.servicedByWrQ                   2465                       # Number of DRAM read bursts serviced by the write queue
system.mem_ctrls.mergedWrBursts               8275997                       # Number of DRAM write bursts merged with an existing one
system.mem_ctrls.neitherReadNorWriteReqs        31256                       # Number of requests that are neither read nor write
system.mem_ctrls.perBankRdBursts::0           1041916                       # Per bank write bursts
system.mem_ctrls.perBankRdBursts::1           1041659                       # Per bank write bursts
system.mem_ctrls.perBankRdBursts::2           1042050                       # Per bank write bursts
system.mem_ctrls.perBankRdBursts::3           1045933                       # Per bank write bursts
system.mem_ctrls.perBankRdBursts::4           1058994                       # Per bank write bursts
system.mem_ctrls.perBankRdBursts::5           1043061                       # Per bank write bursts
system.mem_ctrls.perBankRdBursts::6           1041910                       # Per bank write bursts
system.mem_ctrls.perBankRdBursts::7           1042307                       # Per bank write bursts
system.mem_ctrls.perBankRdBursts::8           1041461                       # Per bank write bursts
system.mem_ctrls.perBankRdBursts::9           1042077                       # Per bank write bursts
system.mem_ctrls.perBankRdBursts::10          1042263                       # Per bank write bursts
system.mem_ctrls.perBankRdBursts::11          1042874                       # Per bank write bursts
system.mem_ctrls.perBankRdBursts::12          1042762                       # Per bank write bursts
system.mem_ctrls.perBankRdBursts::13          1042991                       # Per bank write bursts
system.mem_ctrls.perBankRdBursts::14          1042387                       # Per bank write bursts
system.mem_ctrls.perBankRdBursts::15          1042505                       # Per bank write bursts
system.mem_ctrls.perBankWrBursts::0            521940                       # Per bank write bursts
system.mem_ctrls.perBankWrBursts::1            521739                       # Per bank write bursts
system.mem_ctrls.perBankWrBursts::2            522049                       # Per bank write bursts
system.mem_ctrls.perBankWrBursts::3            524887                       # Per bank write bursts
system.mem_ctrls.perBankWrBursts::4            523811                       # Per bank write bursts
system.mem_ctrls.perBankWrBursts::5            522436                       # Per bank write bursts
system.mem_ctrls.perBankWrBursts::6            521889                       # Per bank write bursts
system.mem_ctrls.perBankWrBursts::7            522149                       # Per bank write bursts
system.mem_ctrls.perBankWrBursts::8            521787                       # Per bank write bursts
system.mem_ctrls.perBankWrBursts::9            521996                       # Per bank write bursts
system.mem_ctrls.perBankWrBursts::10           522097                       # Per bank write bursts
system.mem_ctrls.perBankWrBursts::11           522154                       # Per bank write bursts
system.mem_ctrls.perBankWrBursts::12           522252                       # Per bank write bursts
system.mem_ctrls.perBankWrBursts::13           522409                       # Per bank write bursts
system.mem_ctrls.perBankWrBursts::14           522100                       # Per bank write bursts
system.mem_ctrls.perBankWrBursts::15           522060                       # Per bank write bursts
system.mem_ctrls.numRdRetry                         0                       # Number of times read queue was full causing retry
system.mem_ctrls.numWrRetry                         0                       # Number of times write queue was full causing retry
system.mem_ctrls.totGap                  2253719370500                       # Total gap between requests
system.mem_ctrls.readPktSize::0                     0                       # Read request sizes (log2)
system.mem_ctrls.readPktSize::1                     0                       # Read request sizes (log2)
system.mem_ctrls.readPktSize::2                     0                       # Read request sizes (log2)
system.mem_ctrls.readPktSize::3                     0                       # Read request sizes (log2)
system.mem_ctrls.readPktSize::4                     0                       # Read request sizes (log2)
system.mem_ctrls.readPktSize::5              16699615                       # Read request sizes (log2)
system.mem_ctrls.readPktSize::6                     0                       # Read request sizes (log2)
system.mem_ctrls.writePktSize::0                    0                       # Write request sizes (log2)
system.mem_ctrls.writePktSize::1                    0                       # Write request sizes (log2)
system.mem_ctrls.writePktSize::2                    0                       # Write request sizes (log2)
system.mem_ctrls.writePktSize::3                    0                       # Write request sizes (log2)
system.mem_ctrls.writePktSize::4                    0                       # Write request sizes (log2)
system.mem_ctrls.writePktSize::5             16633777                       # Write request sizes (log2)
system.mem_ctrls.writePktSize::6                    0                       # Write request sizes (log2)
system.mem_ctrls.rdQLenPdf::0                16697149                       # What read queue length does an incoming req see
system.mem_ctrls.rdQLenPdf::1                       1                       # What read queue length does an incoming req see
system.mem_ctrls.rdQLenPdf::2                       0                       # What read queue length does an incoming req see
system.mem_ctrls.rdQLenPdf::3                       0                       # What read queue length does an incoming req see
system.mem_ctrls.rdQLenPdf::4                       0                       # What read queue length does an incoming req see
system.mem_ctrls.rdQLenPdf::5                       0                       # What read queue length does an incoming req see
system.mem_ctrls.rdQLenPdf::6                       0                       # What read queue length does an incoming req see
system.mem_ctrls.rdQLenPdf::7                       0                       # What read queue length does an incoming req see
system.mem_ctrls.rdQLenPdf::8                       0                       # What read queue length does an incoming req see
system.mem_ctrls.rdQLenPdf::9                       0                       # What read queue length does an incoming req see
system.mem_ctrls.rdQLenPdf::10                      0                       # What read queue length does an incoming req see
system.mem_ctrls.rdQLenPdf::11                      0                       # What read queue length does an incoming req see
system.mem_ctrls.rdQLenPdf::12                      0                       # What read queue length does an incoming req see
system.mem_ctrls.rdQLenPdf::13                      0                       # What read queue length does an incoming req see
system.mem_ctrls.rdQLenPdf::14                      0                       # What read queue length does an incoming req see
system.mem_ctrls.rdQLenPdf::15                      0                       # What read queue length does an incoming req see
system.mem_ctrls.rdQLenPdf::16                      0                       # What read queue length does an incoming req see
system.mem_ctrls.rdQLenPdf::17                      0                       # What read queue length does an incoming req see
system.mem_ctrls.rdQLenPdf::18                      0                       # What read queue length does an incoming req see
system.mem_ctrls.rdQLenPdf::19                      0                       # What read queue length does an incoming req see
system.mem_ctrls.rdQLenPdf::20                      0                       # What read queue length does an incoming req see
system.mem_ctrls.rdQLenPdf::21                      0                       # What read queue length does an incoming req see
system.mem_ctrls.rdQLenPdf::22                      0                       # What read queue length does an incoming req see
system.mem_ctrls.rdQLenPdf::23                      0                       # What read queue length does an incoming req see
system.mem_ctrls.rdQLenPdf::24                      0                       # What read queue length does an incoming req see
system.mem_ctrls.rdQLenPdf::25                      0                       # What read queue length does an incoming req see
system.mem_ctrls.rdQLenPdf::26                      0                       # What read queue length does an incoming req see
system.mem_ctrls.rdQLenPdf::27                      0                       # What read queue length does an incoming req see
system.mem_ctrls.rdQLenPdf::28                      0                       # What read queue length does an incoming req see
system.mem_ctrls.rdQLenPdf::29                      0                       # What read queue length does an incoming req see
system.mem_ctrls.rdQLenPdf::30                      0                       # What read queue length does an incoming req see
system.mem_ctrls.rdQLenPdf::31                      0                       # What read queue length does an incoming req see
system.mem_ctrls.wrQLenPdf::0                       1                       # What write queue length does an incoming req see
system.mem_ctrls.wrQLenPdf::1                       1                       # What write queue length does an incoming req see
system.mem_ctrls.wrQLenPdf::2                       1                       # What write queue length does an incoming req see
system.mem_ctrls.wrQLenPdf::3                       1                       # What write queue length does an incoming req see
system.mem_ctrls.wrQLenPdf::4                       1                       # What write queue length does an incoming req see
system.mem_ctrls.wrQLenPdf::5                       1                       # What write queue length does an incoming req see
system.mem_ctrls.wrQLenPdf::6                       1                       # What write queue length does an incoming req see
system.mem_ctrls.wrQLenPdf::7                       1                       # What write queue length does an incoming req see
system.mem_ctrls.wrQLenPdf::8                       1                       # What write queue length does an incoming req see
system.mem_ctrls.wrQLenPdf::9                       1                       # What write queue length does an incoming req see
system.mem_ctrls.wrQLenPdf::10                      1                       # What write queue length does an incoming req see
system.mem_ctrls.wrQLenPdf::11                      1                       # What write queue length does an incoming req see
system.mem_ctrls.wrQLenPdf::12                      1                       # What write queue length does an incoming req see
system.mem_ctrls.wrQLenPdf::13                      1                       # What write queue length does an incoming req see
system.mem_ctrls.wrQLenPdf::14                      1                       # What write queue length does an incoming req see
system.mem_ctrls.wrQLenPdf::15                   5754                       # What write queue length does an incoming req see
system.mem_ctrls.wrQLenPdf::16                   5763                       # What write queue length does an incoming req see
system.mem_ctrls.wrQLenPdf::17                 521603                       # What write queue length does an incoming req see
system.mem_ctrls.wrQLenPdf::18                 521643                       # What write queue length does an incoming req see
system.mem_ctrls.wrQLenPdf::19                 521641                       # What write queue length does an incoming req see
system.mem_ctrls.wrQLenPdf::20                 521639                       # What write queue length does an incoming req see
system.mem_ctrls.wrQLenPdf::21                 521636                       # What write queue length does an incoming req see
system.mem_ctrls.wrQLenPdf::22                 521636                       # What write queue length does an incoming req see
system.mem_ctrls.wrQLenPdf::23                 521638                       # What write queue length does an incoming req see
system.mem_ctrls.wrQLenPdf::24                 521640                       # What write queue length does an incoming req see
system.mem_ctrls.wrQLenPdf::25                 521641                       # What write queue length does an incoming req see
system.mem_ctrls.wrQLenPdf::26                 521638                       # What write queue length does an incoming req see
system.mem_ctrls.wrQLenPdf::27                 521657                       # What write queue length does an incoming req see
system.mem_ctrls.wrQLenPdf::28                 521695                       # What write queue length does an incoming req see
system.mem_ctrls.wrQLenPdf::29                 521635                       # What write queue length does an incoming req see
system.mem_ctrls.wrQLenPdf::30                 521635                       # What write queue length does an incoming req see
system.mem_ctrls.wrQLenPdf::31                 521635                       # What write queue length does an incoming req see
system.mem_ctrls.wrQLenPdf::32                 521635                       # What write queue length does an incoming req see
system.mem_ctrls.wrQLenPdf::33                      1                       # What write queue length does an incoming req see
system.mem_ctrls.wrQLenPdf::34                      0                       # What write queue length does an incoming req see
system.mem_ctrls.wrQLenPdf::35                      0                       # What write queue length does an incoming req see
system.mem_ctrls.wrQLenPdf::36                      0                       # What write queue length does an incoming req see
system.mem_ctrls.wrQLenPdf::37                      0                       # What write queue length does an incoming req see
system.mem_ctrls.wrQLenPdf::38                      0                       # What write queue length does an incoming req see
system.mem_ctrls.wrQLenPdf::39                      0                       # What write queue length does an incoming req see
system.mem_ctrls.wrQLenPdf::40                      0                       # What write queue length does an incoming req see
system.mem_ctrls.wrQLenPdf::41                      0                       # What write queue length does an incoming req see
system.mem_ctrls.wrQLenPdf::42                      0                       # What write queue length does an incoming req see
system.mem_ctrls.wrQLenPdf::43                      0                       # What write queue length does an incoming req see
system.mem_ctrls.wrQLenPdf::44                      0                       # What write queue length does an incoming req see
system.mem_ctrls.wrQLenPdf::45                      0                       # What write queue length does an incoming req see
system.mem_ctrls.wrQLenPdf::46                      0                       # What write queue length does an incoming req see
system.mem_ctrls.wrQLenPdf::47                      0                       # What write queue length does an incoming req see
system.mem_ctrls.wrQLenPdf::48                      0                       # What write queue length does an incoming req see
system.mem_ctrls.wrQLenPdf::49                      0                       # What write queue length does an incoming req see
system.mem_ctrls.wrQLenPdf::50                      0                       # What write queue length does an incoming req see
system.mem_ctrls.wrQLenPdf::51                      0                       # What write queue length does an incoming req see
system.mem_ctrls.wrQLenPdf::52                      0                       # What write queue length does an incoming req see
system.mem_ctrls.wrQLenPdf::53                      0                       # What write queue length does an incoming req see
system.mem_ctrls.wrQLenPdf::54                      0                       # What write queue length does an incoming req see
system.mem_ctrls.wrQLenPdf::55                      0                       # What write queue length does an incoming req see
system.mem_ctrls.wrQLenPdf::56                      0                       # What write queue length does an incoming req see
system.mem_ctrls.wrQLenPdf::57                      0                       # What write queue length does an incoming req see
system.mem_ctrls.wrQLenPdf::58                      0                       # What write queue length does an incoming req see
system.mem_ctrls.wrQLenPdf::59                      0                       # What write queue length does an incoming req see
system.mem_ctrls.wrQLenPdf::60                      0                       # What write queue length does an incoming req see
system.mem_ctrls.wrQLenPdf::61                      0                       # What write queue length does an incoming req see
system.mem_ctrls.wrQLenPdf::62                      0                       # What write queue length does an incoming req see
system.mem_ctrls.wrQLenPdf::63                      0                       # What write queue length does an incoming req see
system.mem_ctrls.bytesPerActivate::samples      2007464                       # Bytes accessed per row activation
system.mem_ctrls.bytesPerActivate::mean    798.775928                       # Bytes accessed per row activation
system.mem_ctrls.bytesPerActivate::gmean   618.931942                       # Bytes accessed per row activation
system.mem_ctrls.bytesPerActivate::stdev   354.845089                       # Bytes accessed per row activation
system.mem_ctrls.bytesPerActivate::0-127       229744     11.44%     11.44% # Bytes accessed per row activation
system.mem_ctrls.bytesPerActivate::128-255        66007      3.29%     14.73% # Bytes accessed per row activation
system.mem_ctrls.bytesPerActivate::256-383        62169      3.10%     17.83% # Bytes accessed per row activation
system.mem_ctrls.bytesPerActivate::384-511        86884      4.33%     22.16% # Bytes accessed per row activation
system.mem_ctrls.bytesPerActivate::512-639        77795      3.88%     26.03% # Bytes accessed per row activation
system.mem_ctrls.bytesPerActivate::640-767        52581      2.62%     28.65% # Bytes accessed per row activation
system.mem_ctrls.bytesPerActivate::768-895        66868      3.33%     31.98% # Bytes accessed per row activation
system.mem_ctrls.bytesPerActivate::896-1023        73878      3.68%     35.66% # Bytes accessed per row activation
system.mem_ctrls.bytesPerActivate::1024-1151      1291538     64.34%    100.00% # Bytes accessed per row activation
system.mem_ctrls.bytesPerActivate::total      2007464                       # Bytes accessed per row activation
system.mem_ctrls.rdPerTurnAround::samples       521635                       # Reads before turning the bus around for writes
system.mem_ctrls.rdPerTurnAround::mean      32.009233                       # Reads before turning the bus around for writes
system.mem_ctrls.rdPerTurnAround::gmean     31.928602                       # Reads before turning the bus around for writes
system.mem_ctrls.rdPerTurnAround::stdev     20.397666                       # Reads before turning the bus around for writes
system.mem_ctrls.rdPerTurnAround::0-511        521629    100.00%    100.00% # Reads before turning the bus around for writes
system.mem_ctrls.rdPerTurnAround::512-1023            1      0.00%    100.00% # Reads before turning the bus around for writes
system.mem_ctrls.rdPerTurnAround::2048-2559            1      0.00%    100.00% # Reads before turning the bus around for writes
system.mem_ctrls.rdPerTurnAround::3584-4095            1      0.00%    100.00% # Reads before turning the bus around for writes
system.mem_ctrls.rdPerTurnAround::4608-5119            1      0.00%    100.00% # Reads before turning the bus around for writes
system.mem_ctrls.rdPerTurnAround::7168-7679            1      0.00%    100.00% # Reads before turning the bus around for writes
system.mem_ctrls.rdPerTurnAround::10752-11263            1      0.00%    100.00% # Reads before turning the bus around for writes
system.mem_ctrls.rdPerTurnAround::total        521635                       # Reads before turning the bus around for writes
system.mem_ctrls.wrPerTurnAround::samples       521635                       # Writes before turning the bus around for reads
system.mem_ctrls.wrPerTurnAround::mean      16.022228                       # Writes before turning the bus around for reads
system.mem_ctrls.wrPerTurnAround::gmean     16.020947                       # Writes before turning the bus around for reads
system.mem_ctrls.wrPerTurnAround::stdev      0.210716                       # Writes before turning the bus around for reads
system.mem_ctrls.wrPerTurnAround::16           515873     98.90%     98.90% # Writes before turning the bus around for reads
system.mem_ctrls.wrPerTurnAround::17                8      0.00%     98.90% # Writes before turning the bus around for reads
system.mem_ctrls.wrPerTurnAround::18             5675      1.09%     99.98% # Writes before turning the bus around for reads
system.mem_ctrls.wrPerTurnAround::19               79      0.02%    100.00% # Writes before turning the bus around for reads
system.mem_ctrls.wrPerTurnAround::total        521635                       # Writes before turning the bus around for reads
system.mem_ctrls.totQLat                 122495679500                       # Total ticks spent queuing
system.mem_ctrls.totMemAccLat            435567242000                       # Total ticks spent from burst creation until serviced by the DRAM
system.mem_ctrls.totBusLat                83485750000                       # Total ticks spent in databus transfers
system.mem_ctrls.avgQLat                      7336.32                       # Average queueing delay per DRAM burst
system.mem_ctrls.avgBusLat                    5000.00                       # Average bus latency per DRAM burst
system.mem_ctrls.avgMemAccLat                26086.32                       # Average memory access latency per DRAM burst
system.mem_ctrls.avgRdBW                       474.15                       # Average DRAM read bandwidth in MiByte/s
system.mem_ctrls.avgWrBW                       237.34                       # Average achieved write bandwidth in MiByte/s
system.mem_ctrls.avgRdBWSys                    237.11                       # Average system read bandwidth in MiByte/s
system.mem_ctrls.avgWrBWSys                    236.18                       # Average system write bandwidth in MiByte/s
system.mem_ctrls.peakBW                      12800.00                       # Theoretical peak bandwidth in MiByte/s
system.mem_ctrls.busUtil                         5.56                       # Data bus utilization in percentage
system.mem_ctrls.busUtilRead                     3.70                       # Data bus utilization in percentage for reads
system.mem_ctrls.busUtilWrite                    1.85                       # Data bus utilization in percentage for writes
system.mem_ctrls.avgRdQLen                       1.00                       # Average read queue length when enqueuing
system.mem_ctrls.avgWrQLen                      25.34                       # Average write queue length when enqueuing
system.mem_ctrls.readRowHits                 15340266                       # Number of row buffer hits during reads
system.mem_ctrls.writeRowHits                 7707175                       # Number of row buffer hits during writes
system.mem_ctrls.readRowHitRate                 91.87                       # Row buffer hit rate for reads
system.mem_ctrls.writeRowHitRate                92.22                       # Row buffer hit rate for writes
system.mem_ctrls.avgGap                      67611.46                       # Average gap between requests
system.mem_ctrls.pageHitRate                    91.99                       # Row buffer hit rate, read and write combined
system.mem_ctrls_0.actEnergy               7635335400                       # Energy for activate commands per rank (pJ)
system.mem_ctrls_0.preEnergy               4166105625                       # Energy for precharge commands per rank (pJ)
system.mem_ctrls_0.readEnergy             65191074000                       # Energy for read commands per rank (pJ)
system.mem_ctrls_0.writeEnergy            27092232000                       # Energy for write commands per rank (pJ)
system.mem_ctrls_0.refreshEnergy         147202692000                       # Energy for refresh commands per rank (pJ)
system.mem_ctrls_0.actBackEnergy         629254023390                       # Energy for active background per rank (pJ)
system.mem_ctrls_0.preBackEnergy         800260971750                       # Energy for precharge background per rank (pJ)
system.mem_ctrls_0.totalEnergy           1680802434165                       # Total energy per rank (pJ)
system.mem_ctrls_0.averagePower            745.786853                       # Core power per rank (mW)
system.mem_ctrls_0.memoryStateTime::IDLE 1319447059750                       # Time in different power states
system.mem_ctrls_0.memoryStateTime::REF   75257000000                       # Time in different power states
system.mem_ctrls_0.memoryStateTime::PRE_PDN            0                       # Time in different power states
system.mem_ctrls_0.memoryStateTime::ACT  859026262750                       # Time in different power states
system.mem_ctrls_0.memoryStateTime::ACT_PDN            0                       # Time in different power states
system.mem_ctrls_1.actEnergy               7541092440                       # Energy for activate commands per rank (pJ)
system.mem_ctrls_1.preEnergy               4114683375                       # Energy for precharge commands per rank (pJ)
system.mem_ctrls_1.readEnergy             65046696000                       # Energy for read commands per rank (pJ)
system.mem_ctrls_1.writeEnergy            27066020400                       # Energy for write commands per rank (pJ)
system.mem_ctrls_1.refreshEnergy         147202692000                       # Energy for refresh commands per rank (pJ)
system.mem_ctrls_1.actBackEnergy         607202523450                       # Energy for active background per rank (pJ)
system.mem_ctrls_1.preBackEnergy         819604392750                       # Energy for precharge background per rank (pJ)
system.mem_ctrls_1.totalEnergy           1677778100415                       # Total energy per rank (pJ)
system.mem_ctrls_1.averagePower            744.444929                       # Core power per rank (mW)
system.mem_ctrls_1.memoryStateTime::IDLE 1351766203000                       # Time in different power states
system.mem_ctrls_1.memoryStateTime::REF   75257000000                       # Time in different power states
system.mem_ctrls_1.memoryStateTime::PRE_PDN            0                       # Time in different power states
system.mem_ctrls_1.memoryStateTime::ACT  826707119500                       # Time in different power states
system.mem_ctrls_1.memoryStateTime::ACT_PDN            0                       # Time in different power states
system.cpu_voltage_domain.voltage                   1                       # Voltage in Volts
system.cpu_clk_domain.clock                       500                       # Clock period in ticks
system.cpu.apic_clk_domain.clock                 8000                       # Clock period in ticks
system.cpu.workload.num_syscalls                  196                       # Number of system calls
system.cpu.numCycles                       4507465113                       # number of cpu cycles simulated
system.cpu.numWorkItemsStarted                      0                       # number of work items this cpu started
system.cpu.numWorkItemsCompleted                    0                       # number of work items this cpu completed
system.cpu.committedInsts                   500000000                       # Number of instructions committed
system.cpu.committedOps                     823366688                       # Number of ops (including micro ops) committed
system.cpu.num_int_alu_accesses             821415780                       # Number of integer alu accesses
system.cpu.num_fp_alu_accesses               66619254                       # Number of float alu accesses
system.cpu.num_func_calls                     5652773                       # number of times a function call or return occured
system.cpu.num_conditional_control_insts     57208851                       # number of instructions that are conditional controls
system.cpu.num_int_insts                    821415780                       # number of integer instructions
system.cpu.num_fp_insts                      66619254                       # number of float instructions
system.cpu.num_int_register_reads          1637209921                       # number of times the integer registers were read
system.cpu.num_int_register_writes          639871071                       # number of times the integer registers were written
system.cpu.num_fp_register_reads             66766844                       # number of times the floating registers were read
system.cpu.num_fp_register_writes              208042                       # number of times the floating registers were written
system.cpu.num_cc_register_reads            319714234                       # number of times the CC registers were read
system.cpu.num_cc_register_writes           287984020                       # number of times the CC registers were written
system.cpu.num_mem_refs                     271673944                       # number of memory refs
system.cpu.num_load_insts                   157213786                       # Number of load instructions
system.cpu.num_store_insts                  114460158                       # Number of store instructions
system.cpu.num_idle_cycles                          0                       # Number of idle cycles
system.cpu.num_busy_cycles                 4507465113                       # Number of busy cycles
system.cpu.not_idle_fraction                        1                       # Percentage of non-idle cycles
system.cpu.idle_fraction                            0                       # Percentage of idle cycles
system.cpu.Branches                          69678398                       # Number of branches fetched
system.cpu.op_class::No_OpClass                202233      0.02%      0.02% # Class of executed instruction
system.cpu.op_class::IntAlu                 550028809     66.80%     66.83% # Class of executed instruction
system.cpu.op_class::IntMult                   125092      0.02%     66.84% # Class of executed instruction
system.cpu.op_class::IntDiv                   1153479      0.14%     66.98% # Class of executed instruction
system.cpu.op_class::FloatAdd                  183131      0.02%     67.00% # Class of executed instruction
system.cpu.op_class::FloatCmp                       0      0.00%     67.00% # Class of executed instruction
system.cpu.op_class::FloatCvt                       0      0.00%     67.00% # Class of executed instruction
system.cpu.op_class::FloatMult                      0      0.00%     67.00% # Class of executed instruction
system.cpu.op_class::FloatDiv                       0      0.00%     67.00% # Class of executed instruction
system.cpu.op_class::FloatSqrt                      0      0.00%     67.00% # Class of executed instruction
system.cpu.op_class::SimdAdd                        0      0.00%     67.00% # Class of executed instruction
system.cpu.op_class::SimdAddAcc                     0      0.00%     67.00% # Class of executed instruction
system.cpu.op_class::SimdAlu                        0      0.00%     67.00% # Class of executed instruction
system.cpu.op_class::SimdCmp                        0      0.00%     67.00% # Class of executed instruction
system.cpu.op_class::SimdCvt                        0      0.00%     67.00% # Class of executed instruction
system.cpu.op_class::SimdMisc                       0      0.00%     67.00% # Class of executed instruction
system.cpu.op_class::SimdMult                       0      0.00%     67.00% # Class of executed instruction
system.cpu.op_class::SimdMultAcc                    0      0.00%     67.00% # Class of executed instruction
system.cpu.op_class::SimdShift                      0      0.00%     67.00% # Class of executed instruction
system.cpu.op_class::SimdShiftAcc                   0      0.00%     67.00% # Class of executed instruction
system.cpu.op_class::SimdSqrt                       0      0.00%     67.00% # Class of executed instruction
system.cpu.op_class::SimdFloatAdd                   0      0.00%     67.00% # Class of executed instruction
system.cpu.op_class::SimdFloatAlu                   0      0.00%     67.00% # Class of executed instruction
system.cpu.op_class::SimdFloatCmp                   0      0.00%     67.00% # Class of executed instruction
system.cpu.op_class::SimdFloatCvt                   0      0.00%     67.00% # Class of executed instruction
system.cpu.op_class::SimdFloatDiv                   0      0.00%     67.00% # Class of executed instruction
system.cpu.op_class::SimdFloatMisc                  0      0.00%     67.00% # Class of executed instruction
system.cpu.op_class::SimdFloatMult                  0      0.00%     67.00% # Class of executed instruction
system.cpu.op_class::SimdFloatMultAcc               0      0.00%     67.00% # Class of executed instruction
system.cpu.op_class::SimdFloatSqrt                  0      0.00%     67.00% # Class of executed instruction
system.cpu.op_class::MemRead                157213786     19.09%     86.10% # Class of executed instruction
system.cpu.op_class::MemWrite               114460158     13.90%    100.00% # Class of executed instruction
system.cpu.op_class::IprAccess                      0      0.00%    100.00% # Class of executed instruction
system.cpu.op_class::InstPrefetch                   0      0.00%    100.00% # Class of executed instruction
system.cpu.op_class::total                  823366688                       # Class of executed instruction
system.cpu.dcache.tags.replacements          17948149                       # number of replacements
system.cpu.dcache.tags.tagsinuse          1023.858699                       # Cycle average of tags in use
system.cpu.dcache.tags.total_refs           253725387                       # Total number of references to valid blocks.
system.cpu.dcache.tags.sampled_refs          17949173                       # Sample count of references to valid blocks.
system.cpu.dcache.tags.avg_refs             14.135770                       # Average number of references to valid blocks.
system.cpu.dcache.tags.warmup_cycle        3084118500                       # Cycle when the warmup percentage was hit.
system.cpu.dcache.tags.occ_blocks::cpu.data  1023.858699                       # Average occupied blocks per requestor
system.cpu.dcache.tags.occ_percent::cpu.data     0.999862                       # Average percentage of cache occupancy
system.cpu.dcache.tags.occ_percent::total     0.999862                       # Average percentage of cache occupancy
system.cpu.dcache.tags.occ_task_id_blocks::1024         1024                       # Occupied blocks per task id
system.cpu.dcache.tags.age_task_id_blocks_1024::0           10                       # Occupied blocks per task id
system.cpu.dcache.tags.age_task_id_blocks_1024::1           93                       # Occupied blocks per task id
system.cpu.dcache.tags.age_task_id_blocks_1024::2          216                       # Occupied blocks per task id
system.cpu.dcache.tags.age_task_id_blocks_1024::3          491                       # Occupied blocks per task id
system.cpu.dcache.tags.age_task_id_blocks_1024::4          214                       # Occupied blocks per task id
system.cpu.dcache.tags.occ_task_id_percent::1024            1                       # Percentage of cache occupancy per task id
system.cpu.dcache.tags.tag_accesses         289623733                       # Number of tag accesses
system.cpu.dcache.tags.data_accesses        289623733                       # Number of data accesses
system.cpu.dcache.ReadReq_hits::cpu.data    156297897                       # number of ReadReq hits
system.cpu.dcache.ReadReq_hits::total       156297897                       # number of ReadReq hits
system.cpu.dcache.WriteReq_hits::cpu.data     97427490                       # number of WriteReq hits
system.cpu.dcache.WriteReq_hits::total       97427490                       # number of WriteReq hits
system.cpu.dcache.demand_hits::cpu.data     253725387                       # number of demand (read+write) hits
system.cpu.dcache.demand_hits::total        253725387                       # number of demand (read+write) hits
system.cpu.dcache.overall_hits::cpu.data    253725387                       # number of overall hits
system.cpu.dcache.overall_hits::total       253725387                       # number of overall hits
system.cpu.dcache.ReadReq_misses::cpu.data       916493                       # number of ReadReq misses
system.cpu.dcache.ReadReq_misses::total        916493                       # number of ReadReq misses
system.cpu.dcache.WriteReq_misses::cpu.data     17032680                       # number of WriteReq misses
system.cpu.dcache.WriteReq_misses::total     17032680                       # number of WriteReq misses
system.cpu.dcache.demand_misses::cpu.data     17949173                       # number of demand (read+write) misses
system.cpu.dcache.demand_misses::total       17949173                       # number of demand (read+write) misses
system.cpu.dcache.overall_misses::cpu.data     17949173                       # number of overall misses
system.cpu.dcache.overall_misses::total      17949173                       # number of overall misses
system.cpu.dcache.ReadReq_miss_latency::cpu.data  19622103000                       # number of ReadReq miss cycles
system.cpu.dcache.ReadReq_miss_latency::total  19622103000                       # number of ReadReq miss cycles
system.cpu.dcache.WriteReq_miss_latency::cpu.data 1304764024500                       # number of WriteReq miss cycles
system.cpu.dcache.WriteReq_miss_latency::total 1304764024500                       # number of WriteReq miss cycles
system.cpu.dcache.demand_miss_latency::cpu.data 1324386127500                       # number of demand (read+write) miss cycles
system.cpu.dcache.demand_miss_latency::total 1324386127500                       # number of demand (read+write) miss cycles
system.cpu.dcache.overall_miss_latency::cpu.data 1324386127500                       # number of overall miss cycles
system.cpu.dcache.overall_miss_latency::total 1324386127500                       # number of overall miss cycles
system.cpu.dcache.ReadReq_accesses::cpu.data    157214390                       # number of ReadReq accesses(hits+misses)
system.cpu.dcache.ReadReq_accesses::total    157214390                       # number of ReadReq accesses(hits+misses)
system.cpu.dcache.WriteReq_accesses::cpu.data    114460170                       # number of WriteReq accesses(hits+misses)
system.cpu.dcache.WriteReq_accesses::total    114460170                       # number of WriteReq accesses(hits+misses)
system.cpu.dcache.demand_accesses::cpu.data    271674560                       # number of demand (read+write) accesses
system.cpu.dcache.demand_accesses::total    271674560                       # number of demand (read+write) accesses
system.cpu.dcache.overall_accesses::cpu.data    271674560                       # number of overall (read+write) accesses
system.cpu.dcache.overall_accesses::total    271674560                       # number of overall (read+write) accesses
system.cpu.dcache.ReadReq_miss_rate::cpu.data     0.005830                       # miss rate for ReadReq accesses
system.cpu.dcache.ReadReq_miss_rate::total     0.005830                       # miss rate for ReadReq accesses
system.cpu.dcache.WriteReq_miss_rate::cpu.data     0.148809                       # miss rate for WriteReq accesses
system.cpu.dcache.WriteReq_miss_rate::total     0.148809                       # miss rate for WriteReq accesses
system.cpu.dcache.demand_miss_rate::cpu.data     0.066069                       # miss rate for demand accesses
system.cpu.dcache.demand_miss_rate::total     0.066069                       # miss rate for demand accesses
system.cpu.dcache.overall_miss_rate::cpu.data     0.066069                       # miss rate for overall accesses
system.cpu.dcache.overall_miss_rate::total     0.066069                       # miss rate for overall accesses
system.cpu.dcache.ReadReq_avg_miss_latency::cpu.data 21409.986765                       # average ReadReq miss latency
system.cpu.dcache.ReadReq_avg_miss_latency::total 21409.986765                       # average ReadReq miss latency
system.cpu.dcache.WriteReq_avg_miss_latency::cpu.data 76603.565880                       # average WriteReq miss latency
system.cpu.dcache.WriteReq_avg_miss_latency::total 76603.565880                       # average WriteReq miss latency
system.cpu.dcache.demand_avg_miss_latency::cpu.data 73785.356434                       # average overall miss latency
system.cpu.dcache.demand_avg_miss_latency::total 73785.356434                       # average overall miss latency
system.cpu.dcache.overall_avg_miss_latency::cpu.data 73785.356434                       # average overall miss latency
system.cpu.dcache.overall_avg_miss_latency::total 73785.356434                       # average overall miss latency
system.cpu.dcache.blocked_cycles::no_mshrs            0                       # number of cycles access was blocked
system.cpu.dcache.blocked_cycles::no_targets            0                       # number of cycles access was blocked
system.cpu.dcache.blocked::no_mshrs                 0                       # number of cycles access was blocked
system.cpu.dcache.blocked::no_targets               0                       # number of cycles access was blocked
system.cpu.dcache.avg_blocked_cycles::no_mshrs          nan                       # average number of cycles each access was blocked
system.cpu.dcache.avg_blocked_cycles::no_targets          nan                       # average number of cycles each access was blocked
system.cpu.dcache.fast_writes                       0                       # number of fast writes performed
system.cpu.dcache.cache_copies                      0                       # number of cache copies performed
system.cpu.dcache.writebacks::writebacks     17457426                       # number of writebacks
system.cpu.dcache.writebacks::total          17457426                       # number of writebacks
system.cpu.dcache.ReadReq_mshr_misses::cpu.data       916493                       # number of ReadReq MSHR misses
system.cpu.dcache.ReadReq_mshr_misses::total       916493                       # number of ReadReq MSHR misses
system.cpu.dcache.WriteReq_mshr_misses::cpu.data     17032680                       # number of WriteReq MSHR misses
system.cpu.dcache.WriteReq_mshr_misses::total     17032680                       # number of WriteReq MSHR misses
system.cpu.dcache.demand_mshr_misses::cpu.data     17949173                       # number of demand (read+write) MSHR misses
system.cpu.dcache.demand_mshr_misses::total     17949173                       # number of demand (read+write) MSHR misses
system.cpu.dcache.overall_mshr_misses::cpu.data     17949173                       # number of overall MSHR misses
system.cpu.dcache.overall_mshr_misses::total     17949173                       # number of overall MSHR misses
system.cpu.dcache.ReadReq_mshr_miss_latency::cpu.data  18705610000                       # number of ReadReq MSHR miss cycles
system.cpu.dcache.ReadReq_mshr_miss_latency::total  18705610000                       # number of ReadReq MSHR miss cycles
system.cpu.dcache.WriteReq_mshr_miss_latency::cpu.data 1287731344500                       # number of WriteReq MSHR miss cycles
system.cpu.dcache.WriteReq_mshr_miss_latency::total 1287731344500                       # number of WriteReq MSHR miss cycles
system.cpu.dcache.demand_mshr_miss_latency::cpu.data 1306436954500                       # number of demand (read+write) MSHR miss cycles
system.cpu.dcache.demand_mshr_miss_latency::total 1306436954500                       # number of demand (read+write) MSHR miss cycles
system.cpu.dcache.overall_mshr_miss_latency::cpu.data 1306436954500                       # number of overall MSHR miss cycles
system.cpu.dcache.overall_mshr_miss_latency::total 1306436954500                       # number of overall MSHR miss cycles
system.cpu.dcache.ReadReq_mshr_miss_rate::cpu.data     0.005830                       # mshr miss rate for ReadReq accesses
system.cpu.dcache.ReadReq_mshr_miss_rate::total     0.005830                       # mshr miss rate for ReadReq accesses
system.cpu.dcache.WriteReq_mshr_miss_rate::cpu.data     0.148809                       # mshr miss rate for WriteReq accesses
system.cpu.dcache.WriteReq_mshr_miss_rate::total     0.148809                       # mshr miss rate for WriteReq accesses
system.cpu.dcache.demand_mshr_miss_rate::cpu.data     0.066069                       # mshr miss rate for demand accesses
system.cpu.dcache.demand_mshr_miss_rate::total     0.066069                       # mshr miss rate for demand accesses
system.cpu.dcache.overall_mshr_miss_rate::cpu.data     0.066069                       # mshr miss rate for overall accesses
system.cpu.dcache.overall_mshr_miss_rate::total     0.066069                       # mshr miss rate for overall accesses
system.cpu.dcache.ReadReq_avg_mshr_miss_latency::cpu.data 20409.986765                       # average ReadReq mshr miss latency
system.cpu.dcache.ReadReq_avg_mshr_miss_latency::total 20409.986765                       # average ReadReq mshr miss latency
system.cpu.dcache.WriteReq_avg_mshr_miss_latency::cpu.data 75603.565880                       # average WriteReq mshr miss latency
system.cpu.dcache.WriteReq_avg_mshr_miss_latency::total 75603.565880                       # average WriteReq mshr miss latency
system.cpu.dcache.demand_avg_mshr_miss_latency::cpu.data 72785.356434                       # average overall mshr miss latency
system.cpu.dcache.demand_avg_mshr_miss_latency::total 72785.356434                       # average overall mshr miss latency
system.cpu.dcache.overall_avg_mshr_miss_latency::cpu.data 72785.356434                       # average overall mshr miss latency
system.cpu.dcache.overall_avg_mshr_miss_latency::total 72785.356434                       # average overall mshr miss latency
system.cpu.dcache.no_allocate_misses                0                       # Number of misses that were no-allocate
system.cpu.dtb_walker_cache.tags.replacements            0                       # number of replacements
system.cpu.dtb_walker_cache.tags.tagsinuse            0                       # Cycle average of tags in use
system.cpu.dtb_walker_cache.tags.total_refs            0                       # Total number of references to valid blocks.
system.cpu.dtb_walker_cache.tags.sampled_refs            0                       # Sample count of references to valid blocks.
system.cpu.dtb_walker_cache.tags.avg_refs          nan                       # Average number of references to valid blocks.
system.cpu.dtb_walker_cache.tags.warmup_cycle            0                       # Cycle when the warmup percentage was hit.
system.cpu.dtb_walker_cache.tags.tag_accesses            0                       # Number of tag accesses
system.cpu.dtb_walker_cache.tags.data_accesses            0                       # Number of data accesses
system.cpu.dtb_walker_cache.blocked_cycles::no_mshrs            0                       # number of cycles access was blocked
system.cpu.dtb_walker_cache.blocked_cycles::no_targets            0                       # number of cycles access was blocked
system.cpu.dtb_walker_cache.blocked::no_mshrs            0                       # number of cycles access was blocked
system.cpu.dtb_walker_cache.blocked::no_targets            0                       # number of cycles access was blocked
system.cpu.dtb_walker_cache.avg_blocked_cycles::no_mshrs          nan                       # average number of cycles each access was blocked
system.cpu.dtb_walker_cache.avg_blocked_cycles::no_targets          nan                       # average number of cycles each access was blocked
system.cpu.dtb_walker_cache.fast_writes             0                       # number of fast writes performed
system.cpu.dtb_walker_cache.cache_copies            0                       # number of cache copies performed
system.cpu.dtb_walker_cache.no_allocate_misses            0                       # Number of misses that were no-allocate
system.cpu.icache.tags.replacements              2540                       # number of replacements
system.cpu.icache.tags.tagsinuse          1352.695733                       # Cycle average of tags in use
system.cpu.icache.tags.total_refs           675349086                       # Total number of references to valid blocks.
system.cpu.icache.tags.sampled_refs              4576                       # Sample count of references to valid blocks.
system.cpu.icache.tags.avg_refs          147585.027535                       # Average number of references to valid blocks.
system.cpu.icache.tags.warmup_cycle                 0                       # Cycle when the warmup percentage was hit.
system.cpu.icache.tags.occ_blocks::cpu.inst  1352.695733                       # Average occupied blocks per requestor
system.cpu.icache.tags.occ_percent::cpu.inst     0.660496                       # Average percentage of cache occupancy
system.cpu.icache.tags.occ_percent::total     0.660496                       # Average percentage of cache occupancy
system.cpu.icache.tags.occ_task_id_blocks::1024         2036                       # Occupied blocks per task id
system.cpu.icache.tags.age_task_id_blocks_1024::4         2036                       # Occupied blocks per task id
system.cpu.icache.tags.occ_task_id_percent::1024     0.994141                       # Percentage of cache occupancy per task id
system.cpu.icache.tags.tag_accesses        5402833872                       # Number of tag accesses
system.cpu.icache.tags.data_accesses       5402833872                       # Number of data accesses
system.cpu.icache.ReadReq_hits::cpu.inst    675349086                       # number of ReadReq hits
system.cpu.icache.ReadReq_hits::total       675349086                       # number of ReadReq hits
system.cpu.icache.demand_hits::cpu.inst     675349086                       # number of demand (read+write) hits
system.cpu.icache.demand_hits::total        675349086                       # number of demand (read+write) hits
system.cpu.icache.overall_hits::cpu.inst    675349086                       # number of overall hits
system.cpu.icache.overall_hits::total       675349086                       # number of overall hits
system.cpu.icache.ReadReq_misses::cpu.inst         4576                       # number of ReadReq misses
system.cpu.icache.ReadReq_misses::total          4576                       # number of ReadReq misses
system.cpu.icache.demand_misses::cpu.inst         4576                       # number of demand (read+write) misses
system.cpu.icache.demand_misses::total           4576                       # number of demand (read+write) misses
system.cpu.icache.overall_misses::cpu.inst         4576                       # number of overall misses
system.cpu.icache.overall_misses::total          4576                       # number of overall misses
system.cpu.icache.ReadReq_miss_latency::cpu.inst    272405500                       # number of ReadReq miss cycles
system.cpu.icache.ReadReq_miss_latency::total    272405500                       # number of ReadReq miss cycles
system.cpu.icache.demand_miss_latency::cpu.inst    272405500                       # number of demand (read+write) miss cycles
system.cpu.icache.demand_miss_latency::total    272405500                       # number of demand (read+write) miss cycles
system.cpu.icache.overall_miss_latency::cpu.inst    272405500                       # number of overall miss cycles
system.cpu.icache.overall_miss_latency::total    272405500                       # number of overall miss cycles
system.cpu.icache.ReadReq_accesses::cpu.inst    675353662                       # number of ReadReq accesses(hits+misses)
system.cpu.icache.ReadReq_accesses::total    675353662                       # number of ReadReq accesses(hits+misses)
system.cpu.icache.demand_accesses::cpu.inst    675353662                       # number of demand (read+write) accesses
system.cpu.icache.demand_accesses::total    675353662                       # number of demand (read+write) accesses
system.cpu.icache.overall_accesses::cpu.inst    675353662                       # number of overall (read+write) accesses
system.cpu.icache.overall_accesses::total    675353662                       # number of overall (read+write) accesses
system.cpu.icache.ReadReq_miss_rate::cpu.inst     0.000007                       # miss rate for ReadReq accesses
system.cpu.icache.ReadReq_miss_rate::total     0.000007                       # miss rate for ReadReq accesses
system.cpu.icache.demand_miss_rate::cpu.inst     0.000007                       # miss rate for demand accesses
system.cpu.icache.demand_miss_rate::total     0.000007                       # miss rate for demand accesses
system.cpu.icache.overall_miss_rate::cpu.inst     0.000007                       # miss rate for overall accesses
system.cpu.icache.overall_miss_rate::total     0.000007                       # miss rate for overall accesses
system.cpu.icache.ReadReq_avg_miss_latency::cpu.inst 59529.173951                       # average ReadReq miss latency
system.cpu.icache.ReadReq_avg_miss_latency::total 59529.173951                       # average ReadReq miss latency
system.cpu.icache.demand_avg_miss_latency::cpu.inst 59529.173951                       # average overall miss latency
system.cpu.icache.demand_avg_miss_latency::total 59529.173951                       # average overall miss latency
system.cpu.icache.overall_avg_miss_latency::cpu.inst 59529.173951                       # average overall miss latency
system.cpu.icache.overall_avg_miss_latency::total 59529.173951                       # average overall miss latency
system.cpu.icache.blocked_cycles::no_mshrs            0                       # number of cycles access was blocked
system.cpu.icache.blocked_cycles::no_targets            0                       # number of cycles access was blocked
system.cpu.icache.blocked::no_mshrs                 0                       # number of cycles access was blocked
system.cpu.icache.blocked::no_targets               0                       # number of cycles access was blocked
system.cpu.icache.avg_blocked_cycles::no_mshrs          nan                       # average number of cycles each access was blocked
system.cpu.icache.avg_blocked_cycles::no_targets          nan                       # average number of cycles each access was blocked
system.cpu.icache.fast_writes                       0                       # number of fast writes performed
system.cpu.icache.cache_copies                      0                       # number of cache copies performed
system.cpu.icache.writebacks::writebacks         2540                       # number of writebacks
system.cpu.icache.writebacks::total              2540                       # number of writebacks
system.cpu.icache.ReadReq_mshr_misses::cpu.inst         4576                       # number of ReadReq MSHR misses
system.cpu.icache.ReadReq_mshr_misses::total         4576                       # number of ReadReq MSHR misses
system.cpu.icache.demand_mshr_misses::cpu.inst         4576                       # number of demand (read+write) MSHR misses
system.cpu.icache.demand_mshr_misses::total         4576                       # number of demand (read+write) MSHR misses
system.cpu.icache.overall_mshr_misses::cpu.inst         4576                       # number of overall MSHR misses
system.cpu.icache.overall_mshr_misses::total         4576                       # number of overall MSHR misses
system.cpu.icache.ReadReq_mshr_miss_latency::cpu.inst    267829500                       # number of ReadReq MSHR miss cycles
system.cpu.icache.ReadReq_mshr_miss_latency::total    267829500                       # number of ReadReq MSHR miss cycles
system.cpu.icache.demand_mshr_miss_latency::cpu.inst    267829500                       # number of demand (read+write) MSHR miss cycles
system.cpu.icache.demand_mshr_miss_latency::total    267829500                       # number of demand (read+write) MSHR miss cycles
system.cpu.icache.overall_mshr_miss_latency::cpu.inst    267829500                       # number of overall MSHR miss cycles
system.cpu.icache.overall_mshr_miss_latency::total    267829500                       # number of overall MSHR miss cycles
system.cpu.icache.ReadReq_mshr_miss_rate::cpu.inst     0.000007                       # mshr miss rate for ReadReq accesses
system.cpu.icache.ReadReq_mshr_miss_rate::total     0.000007                       # mshr miss rate for ReadReq accesses
system.cpu.icache.demand_mshr_miss_rate::cpu.inst     0.000007                       # mshr miss rate for demand accesses
system.cpu.icache.demand_mshr_miss_rate::total     0.000007                       # mshr miss rate for demand accesses
system.cpu.icache.overall_mshr_miss_rate::cpu.inst     0.000007                       # mshr miss rate for overall accesses
system.cpu.icache.overall_mshr_miss_rate::total     0.000007                       # mshr miss rate for overall accesses
system.cpu.icache.ReadReq_avg_mshr_miss_latency::cpu.inst 58529.173951                       # average ReadReq mshr miss latency
system.cpu.icache.ReadReq_avg_mshr_miss_latency::total 58529.173951                       # average ReadReq mshr miss latency
system.cpu.icache.demand_avg_mshr_miss_latency::cpu.inst 58529.173951                       # average overall mshr miss latency
system.cpu.icache.demand_avg_mshr_miss_latency::total 58529.173951                       # average overall mshr miss latency
system.cpu.icache.overall_avg_mshr_miss_latency::cpu.inst 58529.173951                       # average overall mshr miss latency
system.cpu.icache.overall_avg_mshr_miss_latency::total 58529.173951                       # average overall mshr miss latency
system.cpu.icache.no_allocate_misses                0                       # Number of misses that were no-allocate
system.cpu.itb_walker_cache.tags.replacements            0                       # number of replacements
system.cpu.itb_walker_cache.tags.tagsinuse            0                       # Cycle average of tags in use
system.cpu.itb_walker_cache.tags.total_refs            0                       # Total number of references to valid blocks.
system.cpu.itb_walker_cache.tags.sampled_refs            0                       # Sample count of references to valid blocks.
system.cpu.itb_walker_cache.tags.avg_refs          nan                       # Average number of references to valid blocks.
system.cpu.itb_walker_cache.tags.warmup_cycle            0                       # Cycle when the warmup percentage was hit.
system.cpu.itb_walker_cache.tags.tag_accesses            0                       # Number of tag accesses
system.cpu.itb_walker_cache.tags.data_accesses            0                       # Number of data accesses
system.cpu.itb_walker_cache.blocked_cycles::no_mshrs            0                       # number of cycles access was blocked
system.cpu.itb_walker_cache.blocked_cycles::no_targets            0                       # number of cycles access was blocked
system.cpu.itb_walker_cache.blocked::no_mshrs            0                       # number of cycles access was blocked
system.cpu.itb_walker_cache.blocked::no_targets            0                       # number of cycles access was blocked
system.cpu.itb_walker_cache.avg_blocked_cycles::no_mshrs          nan                       # average number of cycles each access was blocked
system.cpu.itb_walker_cache.avg_blocked_cycles::no_targets          nan                       # average number of cycles each access was blocked
system.cpu.itb_walker_cache.fast_writes             0                       # number of fast writes performed
system.cpu.itb_walker_cache.cache_copies            0                       # number of cache copies performed
system.cpu.itb_walker_cache.no_allocate_misses            0                       # Number of misses that were no-allocate
system.l2.tags.replacements                  16702519                       # number of replacements
system.l2.tags.tagsinuse                 31906.363236                       # Cycle average of tags in use
system.l2.tags.total_refs                     2049504                       # Total number of references to valid blocks.
system.l2.tags.sampled_refs                  16735041                       # Sample count of references to valid blocks.
system.l2.tags.avg_refs                      0.122468                       # Average number of references to valid blocks.
system.l2.tags.warmup_cycle                         0                       # Cycle when the warmup percentage was hit.
system.l2.tags.occ_blocks::writebacks    25996.186949                       # Average occupied blocks per requestor
system.l2.tags.occ_blocks::cpu.inst        210.284549                       # Average occupied blocks per requestor
system.l2.tags.occ_blocks::cpu.data       5699.891737                       # Average occupied blocks per requestor
system.l2.tags.occ_percent::writebacks       0.793341                       # Average percentage of cache occupancy
system.l2.tags.occ_percent::cpu.inst         0.006417                       # Average percentage of cache occupancy
system.l2.tags.occ_percent::cpu.data         0.173947                       # Average percentage of cache occupancy
system.l2.tags.occ_percent::total            0.973705                       # Average percentage of cache occupancy
system.l2.tags.occ_task_id_blocks::1024         32522                       # Occupied blocks per task id
system.l2.tags.age_task_id_blocks_1024::0            3                       # Occupied blocks per task id
system.l2.tags.age_task_id_blocks_1024::1           50                       # Occupied blocks per task id
system.l2.tags.age_task_id_blocks_1024::2          203                       # Occupied blocks per task id
system.l2.tags.age_task_id_blocks_1024::3         1001                       # Occupied blocks per task id
system.l2.tags.age_task_id_blocks_1024::4        31265                       # Occupied blocks per task id
system.l2.tags.occ_task_id_percent::1024     0.992493                       # Percentage of cache occupancy per task id
system.l2.tags.tag_accesses                  69672159                       # Number of tag accesses
system.l2.tags.data_accesses                 69672159                       # Number of data accesses
system.l2.WritebackDirty_hits::writebacks     17457426                       # number of WritebackDirty hits
system.l2.WritebackDirty_hits::total         17457426                       # number of WritebackDirty hits
system.l2.WritebackClean_hits::writebacks         2540                       # number of WritebackClean hits
system.l2.WritebackClean_hits::total             2540                       # number of WritebackClean hits
system.l2.ReadExReq_hits::cpu.data             437500                       # number of ReadExReq hits
system.l2.ReadExReq_hits::total                437500                       # number of ReadExReq hits
system.l2.ReadCleanReq_hits::cpu.inst            1480                       # number of ReadCleanReq hits
system.l2.ReadCleanReq_hits::total               1480                       # number of ReadCleanReq hits
system.l2.ReadSharedReq_hits::cpu.data         815154                       # number of ReadSharedReq hits
system.l2.ReadSharedReq_hits::total            815154                       # number of ReadSharedReq hits
system.l2.demand_hits::cpu.inst                  1480                       # number of demand (read+write) hits
system.l2.demand_hits::cpu.data               1252654                       # number of demand (read+write) hits
system.l2.demand_hits::total                  1254134                       # number of demand (read+write) hits
system.l2.overall_hits::cpu.inst                 1480                       # number of overall hits
system.l2.overall_hits::cpu.data              1252654                       # number of overall hits
system.l2.overall_hits::total                 1254134                       # number of overall hits
system.l2.ReadExReq_misses::cpu.data         16595180                       # number of ReadExReq misses
system.l2.ReadExReq_misses::total            16595180                       # number of ReadExReq misses
system.l2.ReadCleanReq_misses::cpu.inst          3096                       # number of ReadCleanReq misses
system.l2.ReadCleanReq_misses::total             3096                       # number of ReadCleanReq misses
system.l2.ReadSharedReq_misses::cpu.data       101339                       # number of ReadSharedReq misses
system.l2.ReadSharedReq_misses::total          101339                       # number of ReadSharedReq misses
system.l2.demand_misses::cpu.inst                3096                       # number of demand (read+write) misses
system.l2.demand_misses::cpu.data            16696519                       # number of demand (read+write) misses
system.l2.demand_misses::total               16699615                       # number of demand (read+write) misses
system.l2.overall_misses::cpu.inst               3096                       # number of overall misses
system.l2.overall_misses::cpu.data           16696519                       # number of overall misses
system.l2.overall_misses::total              16699615                       # number of overall misses
system.l2.ReadExReq_miss_latency::cpu.data 1257588574500                       # number of ReadExReq miss cycles
system.l2.ReadExReq_miss_latency::total  1257588574500                       # number of ReadExReq miss cycles
system.l2.ReadCleanReq_miss_latency::cpu.inst    245425500                       # number of ReadCleanReq miss cycles
system.l2.ReadCleanReq_miss_latency::total    245425500                       # number of ReadCleanReq miss cycles
system.l2.ReadSharedReq_miss_latency::cpu.data   8771753000                       # number of ReadSharedReq miss cycles
system.l2.ReadSharedReq_miss_latency::total   8771753000                       # number of ReadSharedReq miss cycles
system.l2.demand_miss_latency::cpu.inst     245425500                       # number of demand (read+write) miss cycles
system.l2.demand_miss_latency::cpu.data  1266360327500                       # number of demand (read+write) miss cycles
system.l2.demand_miss_latency::total     1266605753000                       # number of demand (read+write) miss cycles
system.l2.overall_miss_latency::cpu.inst    245425500                       # number of overall miss cycles
system.l2.overall_miss_latency::cpu.data 1266360327500                       # number of overall miss cycles
system.l2.overall_miss_latency::total    1266605753000                       # number of overall miss cycles
system.l2.WritebackDirty_accesses::writebacks     17457426                       # number of WritebackDirty accesses(hits+misses)
system.l2.WritebackDirty_accesses::total     17457426                       # number of WritebackDirty accesses(hits+misses)
system.l2.WritebackClean_accesses::writebacks         2540                       # number of WritebackClean accesses(hits+misses)
system.l2.WritebackClean_accesses::total         2540                       # number of WritebackClean accesses(hits+misses)
system.l2.ReadExReq_accesses::cpu.data       17032680                       # number of ReadExReq accesses(hits+misses)
system.l2.ReadExReq_accesses::total          17032680                       # number of ReadExReq accesses(hits+misses)
system.l2.ReadCleanReq_accesses::cpu.inst         4576                       # number of ReadCleanReq accesses(hits+misses)
system.l2.ReadCleanReq_accesses::total           4576                       # number of ReadCleanReq accesses(hits+misses)
system.l2.ReadSharedReq_accesses::cpu.data       916493                       # number of ReadSharedReq accesses(hits+misses)
system.l2.ReadSharedReq_accesses::total        916493                       # number of ReadSharedReq accesses(hits+misses)
system.l2.demand_accesses::cpu.inst              4576                       # number of demand (read+write) accesses
system.l2.demand_accesses::cpu.data          17949173                       # number of demand (read+write) accesses
system.l2.demand_accesses::total             17953749                       # number of demand (read+write) accesses
system.l2.overall_accesses::cpu.inst             4576                       # number of overall (read+write) accesses
system.l2.overall_accesses::cpu.data         17949173                       # number of overall (read+write) accesses
system.l2.overall_accesses::total            17953749                       # number of overall (read+write) accesses
system.l2.ReadExReq_miss_rate::cpu.data      0.974314                       # miss rate for ReadExReq accesses
system.l2.ReadExReq_miss_rate::total         0.974314                       # miss rate for ReadExReq accesses
system.l2.ReadCleanReq_miss_rate::cpu.inst     0.676573                       # miss rate for ReadCleanReq accesses
system.l2.ReadCleanReq_miss_rate::total      0.676573                       # miss rate for ReadCleanReq accesses
system.l2.ReadSharedReq_miss_rate::cpu.data     0.110573                       # miss rate for ReadSharedReq accesses
system.l2.ReadSharedReq_miss_rate::total     0.110573                       # miss rate for ReadSharedReq accesses
system.l2.demand_miss_rate::cpu.inst         0.676573                       # miss rate for demand accesses
system.l2.demand_miss_rate::cpu.data         0.930211                       # miss rate for demand accesses
system.l2.demand_miss_rate::total            0.930146                       # miss rate for demand accesses
system.l2.overall_miss_rate::cpu.inst        0.676573                       # miss rate for overall accesses
system.l2.overall_miss_rate::cpu.data        0.930211                       # miss rate for overall accesses
system.l2.overall_miss_rate::total           0.930146                       # miss rate for overall accesses
system.l2.ReadExReq_avg_miss_latency::cpu.data 75780.351554                       # average ReadExReq miss latency
system.l2.ReadExReq_avg_miss_latency::total 75780.351554                       # average ReadExReq miss latency
system.l2.ReadCleanReq_avg_miss_latency::cpu.inst 79271.802326                       # average ReadCleanReq miss latency
system.l2.ReadCleanReq_avg_miss_latency::total 79271.802326                       # average ReadCleanReq miss latency
system.l2.ReadSharedReq_avg_miss_latency::cpu.data 86558.511531                       # average ReadSharedReq miss latency
system.l2.ReadSharedReq_avg_miss_latency::total 86558.511531                       # average ReadSharedReq miss latency
system.l2.demand_avg_miss_latency::cpu.inst 79271.802326                       # average overall miss latency
system.l2.demand_avg_miss_latency::cpu.data 75845.769259                       # average overall miss latency
system.l2.demand_avg_miss_latency::total 75846.404423                       # average overall miss latency
system.l2.overall_avg_miss_latency::cpu.inst 79271.802326                       # average overall miss latency
system.l2.overall_avg_miss_latency::cpu.data 75845.769259                       # average overall miss latency
system.l2.overall_avg_miss_latency::total 75846.404423                       # average overall miss latency
system.l2.blocked_cycles::no_mshrs                  0                       # number of cycles access was blocked
system.l2.blocked_cycles::no_targets                0                       # number of cycles access was blocked
system.l2.blocked::no_mshrs                         0                       # number of cycles access was blocked
system.l2.blocked::no_targets                       0                       # number of cycles access was blocked
system.l2.avg_blocked_cycles::no_mshrs            nan                       # average number of cycles each access was blocked
system.l2.avg_blocked_cycles::no_targets          nan                       # average number of cycles each access was blocked
system.l2.fast_writes                               0                       # number of fast writes performed
system.l2.cache_copies                              0                       # number of cache copies performed
system.l2.writebacks::writebacks             16633777                       # number of writebacks
system.l2.writebacks::total                  16633777                       # number of writebacks
system.l2.CleanEvict_mshr_misses::writebacks        17590                       # number of CleanEvict MSHR misses
system.l2.CleanEvict_mshr_misses::total         17590                       # number of CleanEvict MSHR misses
system.l2.ReadExReq_mshr_misses::cpu.data     16595180                       # number of ReadExReq MSHR misses
system.l2.ReadExReq_mshr_misses::total       16595180                       # number of ReadExReq MSHR misses
system.l2.ReadCleanReq_mshr_misses::cpu.inst         3096                       # number of ReadCleanReq MSHR misses
system.l2.ReadCleanReq_mshr_misses::total         3096                       # number of ReadCleanReq MSHR misses
system.l2.ReadSharedReq_mshr_misses::cpu.data       101339                       # number of ReadSharedReq MSHR misses
system.l2.ReadSharedReq_mshr_misses::total       101339                       # number of ReadSharedReq MSHR misses
system.l2.demand_mshr_misses::cpu.inst           3096                       # number of demand (read+write) MSHR misses
system.l2.demand_mshr_misses::cpu.data       16696519                       # number of demand (read+write) MSHR misses
system.l2.demand_mshr_misses::total          16699615                       # number of demand (read+write) MSHR misses
system.l2.overall_mshr_misses::cpu.inst          3096                       # number of overall MSHR misses
system.l2.overall_mshr_misses::cpu.data      16696519                       # number of overall MSHR misses
system.l2.overall_mshr_misses::total         16699615                       # number of overall MSHR misses
system.l2.ReadExReq_mshr_miss_latency::cpu.data 1091636774500                       # number of ReadExReq MSHR miss cycles
system.l2.ReadExReq_mshr_miss_latency::total 1091636774500                       # number of ReadExReq MSHR miss cycles
system.l2.ReadCleanReq_mshr_miss_latency::cpu.inst    214465500                       # number of ReadCleanReq MSHR miss cycles
system.l2.ReadCleanReq_mshr_miss_latency::total    214465500                       # number of ReadCleanReq MSHR miss cycles
system.l2.ReadSharedReq_mshr_miss_latency::cpu.data   7758363000                       # number of ReadSharedReq MSHR miss cycles
system.l2.ReadSharedReq_mshr_miss_latency::total   7758363000                       # number of ReadSharedReq MSHR miss cycles
system.l2.demand_mshr_miss_latency::cpu.inst    214465500                       # number of demand (read+write) MSHR miss cycles
system.l2.demand_mshr_miss_latency::cpu.data 1099395137500                       # number of demand (read+write) MSHR miss cycles
system.l2.demand_mshr_miss_latency::total 1099609603000                       # number of demand (read+write) MSHR miss cycles
system.l2.overall_mshr_miss_latency::cpu.inst    214465500                       # number of overall MSHR miss cycles
system.l2.overall_mshr_miss_latency::cpu.data 1099395137500                       # number of overall MSHR miss cycles
system.l2.overall_mshr_miss_latency::total 1099609603000                       # number of overall MSHR miss cycles
system.l2.CleanEvict_mshr_miss_rate::writebacks          inf                       # mshr miss rate for CleanEvict accesses
system.l2.CleanEvict_mshr_miss_rate::total          inf                       # mshr miss rate for CleanEvict accesses
system.l2.ReadExReq_mshr_miss_rate::cpu.data     0.974314                       # mshr miss rate for ReadExReq accesses
system.l2.ReadExReq_mshr_miss_rate::total     0.974314                       # mshr miss rate for ReadExReq accesses
system.l2.ReadCleanReq_mshr_miss_rate::cpu.inst     0.676573                       # mshr miss rate for ReadCleanReq accesses
system.l2.ReadCleanReq_mshr_miss_rate::total     0.676573                       # mshr miss rate for ReadCleanReq accesses
system.l2.ReadSharedReq_mshr_miss_rate::cpu.data     0.110573                       # mshr miss rate for ReadSharedReq accesses
system.l2.ReadSharedReq_mshr_miss_rate::total     0.110573                       # mshr miss rate for ReadSharedReq accesses
system.l2.demand_mshr_miss_rate::cpu.inst     0.676573                       # mshr miss rate for demand accesses
system.l2.demand_mshr_miss_rate::cpu.data     0.930211                       # mshr miss rate for demand accesses
system.l2.demand_mshr_miss_rate::total       0.930146                       # mshr miss rate for demand accesses
system.l2.overall_mshr_miss_rate::cpu.inst     0.676573                       # mshr miss rate for overall accesses
system.l2.overall_mshr_miss_rate::cpu.data     0.930211                       # mshr miss rate for overall accesses
system.l2.overall_mshr_miss_rate::total      0.930146                       # mshr miss rate for overall accesses
system.l2.ReadExReq_avg_mshr_miss_latency::cpu.data 65780.351554                       # average ReadExReq mshr miss latency
system.l2.ReadExReq_avg_mshr_miss_latency::total 65780.351554                       # average ReadExReq mshr miss latency
system.l2.ReadCleanReq_avg_mshr_miss_latency::cpu.inst 69271.802326                       # average ReadCleanReq mshr miss latency
system.l2.ReadCleanReq_avg_mshr_miss_latency::total 69271.802326                       # average ReadCleanReq mshr miss latency
system.l2.ReadSharedReq_avg_mshr_miss_latency::cpu.data 76558.511531                       # average ReadSharedReq mshr miss latency
system.l2.ReadSharedReq_avg_mshr_miss_latency::total 76558.511531                       # average ReadSharedReq mshr miss latency
system.l2.demand_avg_mshr_miss_latency::cpu.inst 69271.802326                       # average overall mshr miss latency
system.l2.demand_avg_mshr_miss_latency::cpu.data 65845.769259                       # average overall mshr miss latency
system.l2.demand_avg_mshr_miss_latency::total 65846.404423                       # average overall mshr miss latency
system.l2.overall_avg_mshr_miss_latency::cpu.inst 69271.802326                       # average overall mshr miss latency
system.l2.overall_avg_mshr_miss_latency::cpu.data 65845.769259                       # average overall mshr miss latency
system.l2.overall_avg_mshr_miss_latency::total 65846.404423                       # average overall mshr miss latency
system.l2.no_allocate_misses                        0                       # Number of misses that were no-allocate
system.membus.trans_dist::ReadResp             104435                       # Transaction distribution
system.membus.trans_dist::WritebackDirty     16633777                       # Transaction distribution
system.membus.trans_dist::CleanEvict            31256                       # Transaction distribution
system.membus.trans_dist::ReadExReq          16595180                       # Transaction distribution
system.membus.trans_dist::ReadExResp         16595180                       # Transaction distribution
system.membus.trans_dist::ReadSharedReq        104435                       # Transaction distribution
system.membus.pkt_count_system.l2.mem_side::system.mem_ctrls.port     50064263                       # Packet count per connected master and slave (bytes)
system.membus.pkt_count_system.l2.mem_side::total     50064263                       # Packet count per connected master and slave (bytes)
system.membus.pkt_count::total               50064263                       # Packet count per connected master and slave (bytes)
system.membus.pkt_size_system.l2.mem_side::system.mem_ctrls.port   1066668544                       # Cumulative packet size per connected master and slave (bytes)
system.membus.pkt_size_system.l2.mem_side::total   1066668544                       # Cumulative packet size per connected master and slave (bytes)
system.membus.pkt_size::total              1066668544                       # Cumulative packet size per connected master and slave (bytes)
system.membus.snoops                                0                       # Total snoops (count)
system.membus.snoop_fanout::samples          33364648                       # Request fanout histogram
system.membus.snoop_fanout::mean                    0                       # Request fanout histogram
system.membus.snoop_fanout::stdev                   0                       # Request fanout histogram
system.membus.snoop_fanout::underflows              0      0.00%      0.00% # Request fanout histogram
system.membus.snoop_fanout::0                33364648    100.00%    100.00% # Request fanout histogram
system.membus.snoop_fanout::1                       0      0.00%    100.00% # Request fanout histogram
system.membus.snoop_fanout::overflows               0      0.00%    100.00% # Request fanout histogram
system.membus.snoop_fanout::min_value               0                       # Request fanout histogram
system.membus.snoop_fanout::max_value               0                       # Request fanout histogram
system.membus.snoop_fanout::total            33364648                       # Request fanout histogram
system.membus.reqLayer2.occupancy         66632243000                       # Layer occupancy (ticks)
system.membus.reqLayer2.utilization               3.0                       # Layer utilization (%)
system.membus.respLayer1.occupancy        54530902000                       # Layer occupancy (ticks)
system.membus.respLayer1.utilization              2.4                       # Layer utilization (%)
system.tol2bus.snoop_filter.tot_requests     35904438                       # Total number of requests made to the snoop filter.
system.tol2bus.snoop_filter.hit_single_requests     17950689                       # Number of requests hitting in the snoop filter with a single holder of the requested data.
system.tol2bus.snoop_filter.hit_multi_requests            0                       # Number of requests hitting in the snoop filter with multiple (>1) holders of the requested data.
system.tol2bus.snoop_filter.tot_snoops          55076                       # Total number of snoops made to the snoop filter.
system.tol2bus.snoop_filter.hit_single_snoops        55076                       # Number of snoops hitting in the snoop filter with a single holder of the requested data.
system.tol2bus.snoop_filter.hit_multi_snoops            0                       # Number of snoops hitting in the snoop filter with multiple (>1) holders of the requested data.
system.tol2bus.trans_dist::ReadResp            921069                       # Transaction distribution
system.tol2bus.trans_dist::WritebackDirty     34091203                       # Transaction distribution
system.tol2bus.trans_dist::WritebackClean         2540                       # Transaction distribution
system.tol2bus.trans_dist::CleanEvict          559465                       # Transaction distribution
system.tol2bus.trans_dist::ReadExReq         17032680                       # Transaction distribution
system.tol2bus.trans_dist::ReadExResp        17032680                       # Transaction distribution
system.tol2bus.trans_dist::ReadCleanReq          4576                       # Transaction distribution
system.tol2bus.trans_dist::ReadSharedReq       916493                       # Transaction distribution
system.tol2bus.pkt_count_system.cpu.icache.mem_side::system.l2.cpu_side        11692                       # Packet count per connected master and slave (bytes)
system.tol2bus.pkt_count_system.cpu.dcache.mem_side::system.l2.cpu_side     53846495                       # Packet count per connected master and slave (bytes)
system.tol2bus.pkt_count::total              53858187                       # Packet count per connected master and slave (bytes)
system.tol2bus.pkt_size_system.cpu.icache.mem_side::system.l2.cpu_side       227712                       # Cumulative packet size per connected master and slave (bytes)
system.tol2bus.pkt_size_system.cpu.dcache.mem_side::system.l2.cpu_side   1133011168                       # Cumulative packet size per connected master and slave (bytes)
system.tol2bus.pkt_size::total             1133238880                       # Cumulative packet size per connected master and slave (bytes)
system.tol2bus.snoops                        16702519                       # Total snoops (count)
system.tol2bus.snoop_fanout::samples         34656268                       # Request fanout histogram
system.tol2bus.snoop_fanout::mean            0.001589                       # Request fanout histogram
system.tol2bus.snoop_fanout::stdev           0.039833                       # Request fanout histogram
system.tol2bus.snoop_fanout::underflows             0      0.00%      0.00% # Request fanout histogram
system.tol2bus.snoop_fanout::0               34601192     99.84%     99.84% # Request fanout histogram
system.tol2bus.snoop_fanout::1                  55076      0.16%    100.00% # Request fanout histogram
system.tol2bus.snoop_fanout::2                      0      0.00%    100.00% # Request fanout histogram
system.tol2bus.snoop_fanout::3                      0      0.00%    100.00% # Request fanout histogram
system.tol2bus.snoop_fanout::4                      0      0.00%    100.00% # Request fanout histogram
system.tol2bus.snoop_fanout::overflows              0      0.00%    100.00% # Request fanout histogram
system.tol2bus.snoop_fanout::min_value              0                       # Request fanout histogram
system.tol2bus.snoop_fanout::max_value              1                       # Request fanout histogram
system.tol2bus.snoop_fanout::total           34656268                       # Request fanout histogram
system.tol2bus.reqLayer0.occupancy        26682202000                       # Layer occupancy (ticks)
system.tol2bus.reqLayer0.utilization              1.2                       # Layer utilization (%)
system.tol2bus.respLayer0.occupancy           4576000                       # Layer occupancy (ticks)
system.tol2bus.respLayer0.utilization             0.0                       # Layer utilization (%)
system.tol2bus.respLayer1.occupancy       17949173000                       # Layer occupancy (ticks)
system.tol2bus.respLayer1.utilization             0.8                       # Layer utilization (%)

---------- End Simulation Statistics   ----------
