
---------- Begin Simulation Statistics ----------
sim_seconds                                  1.668167                       # Number of seconds simulated
sim_ticks                                1668166819000                       # Number of ticks simulated
final_tick                               1668166819000                       # Number of ticks from beginning of simulation (restored from checkpoints and never reset)
sim_freq                                 1000000000000                       # Frequency of simulated ticks
host_inst_rate                                 173648                       # Simulator instruction rate (inst/s)
host_op_rate                                   285951                       # Simulator op (including micro ops) rate (op/s)
host_tick_rate                              579346028                       # Simulator tick rate (ticks/s)
host_mem_usage                                 833012                       # Number of bytes of host memory used
host_seconds                                  2879.40                       # Real time elapsed on the host
sim_insts                                   500000000                       # Number of instructions simulated
sim_ops                                     823366688                       # Number of ops (including micro ops) simulated
system.voltage_domain.voltage                       1                       # Voltage in Volts
system.clk_domain.clock                          1000                       # Clock period in ticks
system.mem_ctrls.bytes_read::cpu.inst          633472                       # Number of bytes read from this memory
system.mem_ctrls.bytes_read::cpu.data       536866368                       # Number of bytes read from this memory
system.mem_ctrls.bytes_read::total          537499840                       # Number of bytes read from this memory
system.mem_ctrls.bytes_inst_read::cpu.inst       633472                       # Number of instructions bytes read from this memory
system.mem_ctrls.bytes_inst_read::total        633472                       # Number of instructions bytes read from this memory
system.mem_ctrls.bytes_written::writebacks    534311552                       # Number of bytes written to this memory
system.mem_ctrls.bytes_written::total       534311552                       # Number of bytes written to this memory
system.mem_ctrls.num_reads::cpu.inst             9898                       # Number of read requests responded to by this memory
system.mem_ctrls.num_reads::cpu.data          8388537                       # Number of read requests responded to by this memory
system.mem_ctrls.num_reads::total             8398435                       # Number of read requests responded to by this memory
system.mem_ctrls.num_writes::writebacks       8348618                       # Number of write requests responded to by this memory
system.mem_ctrls.num_writes::total            8348618                       # Number of write requests responded to by this memory
system.mem_ctrls.bw_read::cpu.inst             379741                       # Total read bandwidth from this memory (bytes/s)
system.mem_ctrls.bw_read::cpu.data          321830144                       # Total read bandwidth from this memory (bytes/s)
system.mem_ctrls.bw_read::total             322209886                       # Total read bandwidth from this memory (bytes/s)
system.mem_ctrls.bw_inst_read::cpu.inst        379741                       # Instruction read bandwidth from this memory (bytes/s)
system.mem_ctrls.bw_inst_read::total           379741                       # Instruction read bandwidth from this memory (bytes/s)
system.mem_ctrls.bw_write::writebacks       320298633                       # Write bandwidth from this memory (bytes/s)
system.mem_ctrls.bw_write::total            320298633                       # Write bandwidth from this memory (bytes/s)
system.mem_ctrls.bw_total::writebacks       320298633                       # Total bandwidth to/from this memory (bytes/s)
system.mem_ctrls.bw_total::cpu.inst            379741                       # Total bandwidth to/from this memory (bytes/s)
system.mem_ctrls.bw_total::cpu.data         321830144                       # Total bandwidth to/from this memory (bytes/s)
system.mem_ctrls.bw_total::total            642508519                       # Total bandwidth to/from this memory (bytes/s)
system.mem_ctrls.readReqs                     8398435                       # Number of read requests accepted
system.mem_ctrls.writeReqs                    8348618                       # Number of write requests accepted
system.mem_ctrls.readBursts                   8398435                       # Number of DRAM read bursts, including those serviced by the write queue
system.mem_ctrls.writeBursts                  8348618                       # Number of DRAM write bursts, including those merged in the write queue
system.mem_ctrls.bytesReadDRAM              537468480                       # Total number of bytes read from DRAM
system.mem_ctrls.bytesReadWrQ                   31360                       # Total number of bytes read from write queue
system.mem_ctrls.bytesWritten               534309056                       # Total number of bytes written to DRAM
system.mem_ctrls.bytesReadSys               537499840                       # Total read bytes from the system interface side
system.mem_ctrls.bytesWrittenSys            534311552                       # Total written bytes from the system interface side
system.mem_ctrls.servicedByWrQ                    490                       # Number of DRAM read bursts serviced by the write queue
system.mem_ctrls.mergedWrBursts                    13                       # Number of DRAM write bursts merged with an existing one
system.mem_ctrls.neitherReadNorWriteReqs        33110                       # Number of requests that are neither read nor write
system.mem_ctrls.perBankRdBursts::0            523608                       # Per bank write bursts
system.mem_ctrls.perBankRdBursts::1            523395                       # Per bank write bursts
system.mem_ctrls.perBankRdBursts::2            523729                       # Per bank write bursts
system.mem_ctrls.perBankRdBursts::3            524685                       # Per bank write bursts
system.mem_ctrls.perBankRdBursts::4            526223                       # Per bank write bursts
system.mem_ctrls.perBankRdBursts::5            524400                       # Per bank write bursts
system.mem_ctrls.perBankRdBursts::6            524434                       # Per bank write bursts
system.mem_ctrls.perBankRdBursts::7            524366                       # Per bank write bursts
system.mem_ctrls.perBankRdBursts::8            523330                       # Per bank write bursts
system.mem_ctrls.perBankRdBursts::9            523948                       # Per bank write bursts
system.mem_ctrls.perBankRdBursts::10           531174                       # Per bank write bursts
system.mem_ctrls.perBankRdBursts::11           527361                       # Per bank write bursts
system.mem_ctrls.perBankRdBursts::12           524873                       # Per bank write bursts
system.mem_ctrls.perBankRdBursts::13           524114                       # Per bank write bursts
system.mem_ctrls.perBankRdBursts::14           524066                       # Per bank write bursts
system.mem_ctrls.perBankRdBursts::15           524239                       # Per bank write bursts
system.mem_ctrls.perBankWrBursts::0            521627                       # Per bank write bursts
system.mem_ctrls.perBankWrBursts::1            521420                       # Per bank write bursts
system.mem_ctrls.perBankWrBursts::2            521673                       # Per bank write bursts
system.mem_ctrls.perBankWrBursts::3            522064                       # Per bank write bursts
system.mem_ctrls.perBankWrBursts::4            522274                       # Per bank write bursts
system.mem_ctrls.perBankWrBursts::5            522035                       # Per bank write bursts
system.mem_ctrls.perBankWrBursts::6            521633                       # Per bank write bursts
system.mem_ctrls.perBankWrBursts::7            521841                       # Per bank write bursts
system.mem_ctrls.perBankWrBursts::8            521389                       # Per bank write bursts
system.mem_ctrls.perBankWrBursts::9            521587                       # Per bank write bursts
system.mem_ctrls.perBankWrBursts::10           521745                       # Per bank write bursts
system.mem_ctrls.perBankWrBursts::11           521852                       # Per bank write bursts
system.mem_ctrls.perBankWrBursts::12           521936                       # Per bank write bursts
system.mem_ctrls.perBankWrBursts::13           521964                       # Per bank write bursts
system.mem_ctrls.perBankWrBursts::14           521792                       # Per bank write bursts
system.mem_ctrls.perBankWrBursts::15           521747                       # Per bank write bursts
system.mem_ctrls.numRdRetry                         0                       # Number of times read queue was full causing retry
system.mem_ctrls.numWrRetry                         0                       # Number of times write queue was full causing retry
system.mem_ctrls.totGap                  1668153864500                       # Total gap between requests
system.mem_ctrls.readPktSize::0                     0                       # Read request sizes (log2)
system.mem_ctrls.readPktSize::1                     0                       # Read request sizes (log2)
system.mem_ctrls.readPktSize::2                     0                       # Read request sizes (log2)
system.mem_ctrls.readPktSize::3                     0                       # Read request sizes (log2)
system.mem_ctrls.readPktSize::4                     0                       # Read request sizes (log2)
system.mem_ctrls.readPktSize::5                     0                       # Read request sizes (log2)
system.mem_ctrls.readPktSize::6               8398435                       # Read request sizes (log2)
system.mem_ctrls.writePktSize::0                    0                       # Write request sizes (log2)
system.mem_ctrls.writePktSize::1                    0                       # Write request sizes (log2)
system.mem_ctrls.writePktSize::2                    0                       # Write request sizes (log2)
system.mem_ctrls.writePktSize::3                    0                       # Write request sizes (log2)
system.mem_ctrls.writePktSize::4                    0                       # Write request sizes (log2)
system.mem_ctrls.writePktSize::5                    0                       # Write request sizes (log2)
system.mem_ctrls.writePktSize::6              8348618                       # Write request sizes (log2)
system.mem_ctrls.rdQLenPdf::0                 8397944                       # What read queue length does an incoming req see
system.mem_ctrls.rdQLenPdf::1                       1                       # What read queue length does an incoming req see
system.mem_ctrls.rdQLenPdf::2                       0                       # What read queue length does an incoming req see
system.mem_ctrls.rdQLenPdf::3                       0                       # What read queue length does an incoming req see
system.mem_ctrls.rdQLenPdf::4                       0                       # What read queue length does an incoming req see
system.mem_ctrls.rdQLenPdf::5                       0                       # What read queue length does an incoming req see
system.mem_ctrls.rdQLenPdf::6                       0                       # What read queue length does an incoming req see
system.mem_ctrls.rdQLenPdf::7                       0                       # What read queue length does an incoming req see
system.mem_ctrls.rdQLenPdf::8                       0                       # What read queue length does an incoming req see
system.mem_ctrls.rdQLenPdf::9                       0                       # What read queue length does an incoming req see
system.mem_ctrls.rdQLenPdf::10                      0                       # What read queue length does an incoming req see
system.mem_ctrls.rdQLenPdf::11                      0                       # What read queue length does an incoming req see
system.mem_ctrls.rdQLenPdf::12                      0                       # What read queue length does an incoming req see
system.mem_ctrls.rdQLenPdf::13                      0                       # What read queue length does an incoming req see
system.mem_ctrls.rdQLenPdf::14                      0                       # What read queue length does an incoming req see
system.mem_ctrls.rdQLenPdf::15                      0                       # What read queue length does an incoming req see
system.mem_ctrls.rdQLenPdf::16                      0                       # What read queue length does an incoming req see
system.mem_ctrls.rdQLenPdf::17                      0                       # What read queue length does an incoming req see
system.mem_ctrls.rdQLenPdf::18                      0                       # What read queue length does an incoming req see
system.mem_ctrls.rdQLenPdf::19                      0                       # What read queue length does an incoming req see
system.mem_ctrls.rdQLenPdf::20                      0                       # What read queue length does an incoming req see
system.mem_ctrls.rdQLenPdf::21                      0                       # What read queue length does an incoming req see
system.mem_ctrls.rdQLenPdf::22                      0                       # What read queue length does an incoming req see
system.mem_ctrls.rdQLenPdf::23                      0                       # What read queue length does an incoming req see
system.mem_ctrls.rdQLenPdf::24                      0                       # What read queue length does an incoming req see
system.mem_ctrls.rdQLenPdf::25                      0                       # What read queue length does an incoming req see
system.mem_ctrls.rdQLenPdf::26                      0                       # What read queue length does an incoming req see
system.mem_ctrls.rdQLenPdf::27                      0                       # What read queue length does an incoming req see
system.mem_ctrls.rdQLenPdf::28                      0                       # What read queue length does an incoming req see
system.mem_ctrls.rdQLenPdf::29                      0                       # What read queue length does an incoming req see
system.mem_ctrls.rdQLenPdf::30                      0                       # What read queue length does an incoming req see
system.mem_ctrls.rdQLenPdf::31                      0                       # What read queue length does an incoming req see
system.mem_ctrls.wrQLenPdf::0                       1                       # What write queue length does an incoming req see
system.mem_ctrls.wrQLenPdf::1                       1                       # What write queue length does an incoming req see
system.mem_ctrls.wrQLenPdf::2                       1                       # What write queue length does an incoming req see
system.mem_ctrls.wrQLenPdf::3                       1                       # What write queue length does an incoming req see
system.mem_ctrls.wrQLenPdf::4                       1                       # What write queue length does an incoming req see
system.mem_ctrls.wrQLenPdf::5                       1                       # What write queue length does an incoming req see
system.mem_ctrls.wrQLenPdf::6                       1                       # What write queue length does an incoming req see
system.mem_ctrls.wrQLenPdf::7                       1                       # What write queue length does an incoming req see
system.mem_ctrls.wrQLenPdf::8                       1                       # What write queue length does an incoming req see
system.mem_ctrls.wrQLenPdf::9                       1                       # What write queue length does an incoming req see
system.mem_ctrls.wrQLenPdf::10                      1                       # What write queue length does an incoming req see
system.mem_ctrls.wrQLenPdf::11                      1                       # What write queue length does an incoming req see
system.mem_ctrls.wrQLenPdf::12                      1                       # What write queue length does an incoming req see
system.mem_ctrls.wrQLenPdf::13                      1                       # What write queue length does an incoming req see
system.mem_ctrls.wrQLenPdf::14                      1                       # What write queue length does an incoming req see
system.mem_ctrls.wrQLenPdf::15                   6810                       # What write queue length does an incoming req see
system.mem_ctrls.wrQLenPdf::16                   6818                       # What write queue length does an incoming req see
system.mem_ctrls.wrQLenPdf::17                 518769                       # What write queue length does an incoming req see
system.mem_ctrls.wrQLenPdf::18                 520856                       # What write queue length does an incoming req see
system.mem_ctrls.wrQLenPdf::19                 520860                       # What write queue length does an incoming req see
system.mem_ctrls.wrQLenPdf::20                 520854                       # What write queue length does an incoming req see
system.mem_ctrls.wrQLenPdf::21                 520858                       # What write queue length does an incoming req see
system.mem_ctrls.wrQLenPdf::22                 520852                       # What write queue length does an incoming req see
system.mem_ctrls.wrQLenPdf::23                 520853                       # What write queue length does an incoming req see
system.mem_ctrls.wrQLenPdf::24                 520859                       # What write queue length does an incoming req see
system.mem_ctrls.wrQLenPdf::25                 524173                       # What write queue length does an incoming req see
system.mem_ctrls.wrQLenPdf::26                 520856                       # What write queue length does an incoming req see
system.mem_ctrls.wrQLenPdf::27                 520867                       # What write queue length does an incoming req see
system.mem_ctrls.wrQLenPdf::28                 520900                       # What write queue length does an incoming req see
system.mem_ctrls.wrQLenPdf::29                 520852                       # What write queue length does an incoming req see
system.mem_ctrls.wrQLenPdf::30                 520852                       # What write queue length does an incoming req see
system.mem_ctrls.wrQLenPdf::31                 520850                       # What write queue length does an incoming req see
system.mem_ctrls.wrQLenPdf::32                 520850                       # What write queue length does an incoming req see
system.mem_ctrls.wrQLenPdf::33                      1                       # What write queue length does an incoming req see
system.mem_ctrls.wrQLenPdf::34                      0                       # What write queue length does an incoming req see
system.mem_ctrls.wrQLenPdf::35                      0                       # What write queue length does an incoming req see
system.mem_ctrls.wrQLenPdf::36                      0                       # What write queue length does an incoming req see
system.mem_ctrls.wrQLenPdf::37                      0                       # What write queue length does an incoming req see
system.mem_ctrls.wrQLenPdf::38                      0                       # What write queue length does an incoming req see
system.mem_ctrls.wrQLenPdf::39                      0                       # What write queue length does an incoming req see
system.mem_ctrls.wrQLenPdf::40                      0                       # What write queue length does an incoming req see
system.mem_ctrls.wrQLenPdf::41                      0                       # What write queue length does an incoming req see
system.mem_ctrls.wrQLenPdf::42                      0                       # What write queue length does an incoming req see
system.mem_ctrls.wrQLenPdf::43                      0                       # What write queue length does an incoming req see
system.mem_ctrls.wrQLenPdf::44                      0                       # What write queue length does an incoming req see
system.mem_ctrls.wrQLenPdf::45                      0                       # What write queue length does an incoming req see
system.mem_ctrls.wrQLenPdf::46                      0                       # What write queue length does an incoming req see
system.mem_ctrls.wrQLenPdf::47                      0                       # What write queue length does an incoming req see
system.mem_ctrls.wrQLenPdf::48                      0                       # What write queue length does an incoming req see
system.mem_ctrls.wrQLenPdf::49                      0                       # What write queue length does an incoming req see
system.mem_ctrls.wrQLenPdf::50                      0                       # What write queue length does an incoming req see
system.mem_ctrls.wrQLenPdf::51                      0                       # What write queue length does an incoming req see
system.mem_ctrls.wrQLenPdf::52                      0                       # What write queue length does an incoming req see
system.mem_ctrls.wrQLenPdf::53                      0                       # What write queue length does an incoming req see
system.mem_ctrls.wrQLenPdf::54                      0                       # What write queue length does an incoming req see
system.mem_ctrls.wrQLenPdf::55                      0                       # What write queue length does an incoming req see
system.mem_ctrls.wrQLenPdf::56                      0                       # What write queue length does an incoming req see
system.mem_ctrls.wrQLenPdf::57                      0                       # What write queue length does an incoming req see
system.mem_ctrls.wrQLenPdf::58                      0                       # What write queue length does an incoming req see
system.mem_ctrls.wrQLenPdf::59                      0                       # What write queue length does an incoming req see
system.mem_ctrls.wrQLenPdf::60                      0                       # What write queue length does an incoming req see
system.mem_ctrls.wrQLenPdf::61                      0                       # What write queue length does an incoming req see
system.mem_ctrls.wrQLenPdf::62                      0                       # What write queue length does an incoming req see
system.mem_ctrls.wrQLenPdf::63                      0                       # What write queue length does an incoming req see
system.mem_ctrls.bytesPerActivate::samples      1426898                       # Bytes accessed per row activation
system.mem_ctrls.bytesPerActivate::mean    751.124142                       # Bytes accessed per row activation
system.mem_ctrls.bytesPerActivate::gmean   549.684863                       # Bytes accessed per row activation
system.mem_ctrls.bytesPerActivate::stdev   378.579865                       # Bytes accessed per row activation
system.mem_ctrls.bytesPerActivate::0-127       207532     14.54%     14.54% # Bytes accessed per row activation
system.mem_ctrls.bytesPerActivate::128-255        57859      4.05%     18.60% # Bytes accessed per row activation
system.mem_ctrls.bytesPerActivate::256-383        61691      4.32%     22.92% # Bytes accessed per row activation
system.mem_ctrls.bytesPerActivate::384-511        56329      3.95%     26.87% # Bytes accessed per row activation
system.mem_ctrls.bytesPerActivate::512-639        44779      3.14%     30.01% # Bytes accessed per row activation
system.mem_ctrls.bytesPerActivate::640-767        69043      4.84%     34.85% # Bytes accessed per row activation
system.mem_ctrls.bytesPerActivate::768-895        42991      3.01%     37.86% # Bytes accessed per row activation
system.mem_ctrls.bytesPerActivate::896-1023        55192      3.87%     41.73% # Bytes accessed per row activation
system.mem_ctrls.bytesPerActivate::1024-1151       831482     58.27%    100.00% # Bytes accessed per row activation
system.mem_ctrls.bytesPerActivate::total      1426898                       # Bytes accessed per row activation
system.mem_ctrls.rdPerTurnAround::samples       520850                       # Reads before turning the bus around for writes
system.mem_ctrls.rdPerTurnAround::mean      16.123513                       # Reads before turning the bus around for writes
system.mem_ctrls.rdPerTurnAround::gmean     16.073424                       # Reads before turning the bus around for writes
system.mem_ctrls.rdPerTurnAround::stdev     10.471277                       # Reads before turning the bus around for writes
system.mem_ctrls.rdPerTurnAround::0-255        520843    100.00%    100.00% # Reads before turning the bus around for writes
system.mem_ctrls.rdPerTurnAround::256-511            2      0.00%    100.00% # Reads before turning the bus around for writes
system.mem_ctrls.rdPerTurnAround::1024-1279            1      0.00%    100.00% # Reads before turning the bus around for writes
system.mem_ctrls.rdPerTurnAround::1792-2047            1      0.00%    100.00% # Reads before turning the bus around for writes
system.mem_ctrls.rdPerTurnAround::2304-2559            1      0.00%    100.00% # Reads before turning the bus around for writes
system.mem_ctrls.rdPerTurnAround::3584-3839            1      0.00%    100.00% # Reads before turning the bus around for writes
system.mem_ctrls.rdPerTurnAround::5376-5631            1      0.00%    100.00% # Reads before turning the bus around for writes
system.mem_ctrls.rdPerTurnAround::total        520850                       # Reads before turning the bus around for writes
system.mem_ctrls.wrPerTurnAround::samples       520850                       # Writes before turning the bus around for reads
system.mem_ctrls.wrPerTurnAround::mean      16.028759                       # Writes before turning the bus around for reads
system.mem_ctrls.wrPerTurnAround::gmean     16.026922                       # Writes before turning the bus around for reads
system.mem_ctrls.wrPerTurnAround::stdev      0.253838                       # Writes before turning the bus around for reads
system.mem_ctrls.wrPerTurnAround::16           514029     98.69%     98.69% # Writes before turning the bus around for reads
system.mem_ctrls.wrPerTurnAround::17               10      0.00%     98.69% # Writes before turning the bus around for reads
system.mem_ctrls.wrPerTurnAround::18             5465      1.05%     99.74% # Writes before turning the bus around for reads
system.mem_ctrls.wrPerTurnAround::19             1345      0.26%    100.00% # Writes before turning the bus around for reads
system.mem_ctrls.wrPerTurnAround::20                1      0.00%    100.00% # Writes before turning the bus around for reads
system.mem_ctrls.wrPerTurnAround::total        520850                       # Writes before turning the bus around for reads
system.mem_ctrls.totQLat                  88596394750                       # Total ticks spent queuing
system.mem_ctrls.totMemAccLat            246057863500                       # Total ticks spent from burst creation until serviced by the DRAM
system.mem_ctrls.totBusLat                41989725000                       # Total ticks spent in databus transfers
system.mem_ctrls.avgQLat                     10549.77                       # Average queueing delay per DRAM burst
system.mem_ctrls.avgBusLat                    5000.00                       # Average bus latency per DRAM burst
system.mem_ctrls.avgMemAccLat                29299.77                       # Average memory access latency per DRAM burst
system.mem_ctrls.avgRdBW                       322.19                       # Average DRAM read bandwidth in MiByte/s
system.mem_ctrls.avgWrBW                       320.30                       # Average achieved write bandwidth in MiByte/s
system.mem_ctrls.avgRdBWSys                    322.21                       # Average system read bandwidth in MiByte/s
system.mem_ctrls.avgWrBWSys                    320.30                       # Average system write bandwidth in MiByte/s
system.mem_ctrls.peakBW                      12800.00                       # Theoretical peak bandwidth in MiByte/s
system.mem_ctrls.busUtil                         5.02                       # Data bus utilization in percentage
system.mem_ctrls.busUtilRead                     2.52                       # Data bus utilization in percentage for reads
system.mem_ctrls.busUtilWrite                    2.50                       # Data bus utilization in percentage for writes
system.mem_ctrls.avgRdQLen                       1.00                       # Average read queue length when enqueuing
system.mem_ctrls.avgWrQLen                      25.21                       # Average write queue length when enqueuing
system.mem_ctrls.readRowHits                  7620233                       # Number of row buffer hits during reads
system.mem_ctrls.writeRowHits                 7699393                       # Number of row buffer hits during writes
system.mem_ctrls.readRowHitRate                 90.74                       # Row buffer hit rate for reads
system.mem_ctrls.writeRowHitRate                92.22                       # Row buffer hit rate for writes
system.mem_ctrls.avgGap                      99608.80                       # Average gap between requests
system.mem_ctrls.pageHitRate                    91.48                       # Row buffer hit rate, read and write combined
system.mem_ctrls_0.actEnergy               5378380560                       # Energy for activate commands per rank (pJ)
system.mem_ctrls_0.preEnergy               2934632250                       # Energy for precharge commands per rank (pJ)
system.mem_ctrls_0.readEnergy             32719752000                       # Energy for read commands per rank (pJ)
system.mem_ctrls_0.writeEnergy            27051194160                       # Energy for write commands per rank (pJ)
system.mem_ctrls_0.refreshEnergy         108956437200                       # Energy for refresh commands per rank (pJ)
system.mem_ctrls_0.actBackEnergy         405466242165                       # Energy for active background per rank (pJ)
system.mem_ctrls_0.preBackEnergy         645227084250                       # Energy for precharge background per rank (pJ)
system.mem_ctrls_0.totalEnergy           1227733722585                       # Total energy per rank (pJ)
system.mem_ctrls_0.averagePower            735.978422                       # Core power per rank (mW)
system.mem_ctrls_0.memoryStateTime::IDLE 1066487960500                       # Time in different power states
system.mem_ctrls_0.memoryStateTime::REF   55703700000                       # Time in different power states
system.mem_ctrls_0.memoryStateTime::PRE_PDN            0                       # Time in different power states
system.mem_ctrls_0.memoryStateTime::ACT  545973730750                       # Time in different power states
system.mem_ctrls_0.memoryStateTime::ACT_PDN            0                       # Time in different power states
system.mem_ctrls_1.actEnergy               5408968320                       # Energy for activate commands per rank (pJ)
system.mem_ctrls_1.preEnergy               2951322000                       # Energy for precharge commands per rank (pJ)
system.mem_ctrls_1.readEnergy             32784219000                       # Energy for read commands per rank (pJ)
system.mem_ctrls_1.writeEnergy            27047597760                       # Energy for write commands per rank (pJ)
system.mem_ctrls_1.refreshEnergy         108956437200                       # Energy for refresh commands per rank (pJ)
system.mem_ctrls_1.actBackEnergy         418012950780                       # Energy for active background per rank (pJ)
system.mem_ctrls_1.preBackEnergy         634221199500                       # Energy for precharge background per rank (pJ)
system.mem_ctrls_1.totalEnergy           1229382694560                       # Total energy per rank (pJ)
system.mem_ctrls_1.averagePower            736.966917                       # Core power per rank (mW)
system.mem_ctrls_1.memoryStateTime::IDLE 1048103114750                       # Time in different power states
system.mem_ctrls_1.memoryStateTime::REF   55703700000                       # Time in different power states
system.mem_ctrls_1.memoryStateTime::PRE_PDN            0                       # Time in different power states
system.mem_ctrls_1.memoryStateTime::ACT  564358576500                       # Time in different power states
system.mem_ctrls_1.memoryStateTime::ACT_PDN            0                       # Time in different power states
system.cpu_voltage_domain.voltage                   1                       # Voltage in Volts
system.cpu_clk_domain.clock                       500                       # Clock period in ticks
system.cpu.apic_clk_domain.clock                 8000                       # Clock period in ticks
system.cpu.workload.num_syscalls                  196                       # Number of system calls
system.cpu.numCycles                       3336333638                       # number of cpu cycles simulated
system.cpu.numWorkItemsStarted                      0                       # number of work items this cpu started
system.cpu.numWorkItemsCompleted                    0                       # number of work items this cpu completed
system.cpu.committedInsts                   500000000                       # Number of instructions committed
system.cpu.committedOps                     823366688                       # Number of ops (including micro ops) committed
system.cpu.num_int_alu_accesses             821415780                       # Number of integer alu accesses
system.cpu.num_fp_alu_accesses               66619254                       # Number of float alu accesses
system.cpu.num_func_calls                     5652773                       # number of times a function call or return occured
system.cpu.num_conditional_control_insts     57208851                       # number of instructions that are conditional controls
system.cpu.num_int_insts                    821415780                       # number of integer instructions
system.cpu.num_fp_insts                      66619254                       # number of float instructions
system.cpu.num_int_register_reads          1637209921                       # number of times the integer registers were read
system.cpu.num_int_register_writes          639871071                       # number of times the integer registers were written
system.cpu.num_fp_register_reads             66766844                       # number of times the floating registers were read
system.cpu.num_fp_register_writes              208042                       # number of times the floating registers were written
system.cpu.num_cc_register_reads            319714234                       # number of times the CC registers were read
system.cpu.num_cc_register_writes           287984020                       # number of times the CC registers were written
system.cpu.num_mem_refs                     271673944                       # number of memory refs
system.cpu.num_load_insts                   157213786                       # Number of load instructions
system.cpu.num_store_insts                  114460158                       # Number of store instructions
system.cpu.num_idle_cycles                          0                       # Number of idle cycles
system.cpu.num_busy_cycles                 3336333638                       # Number of busy cycles
system.cpu.not_idle_fraction                        1                       # Percentage of non-idle cycles
system.cpu.idle_fraction                            0                       # Percentage of idle cycles
system.cpu.Branches                          69678398                       # Number of branches fetched
system.cpu.op_class::No_OpClass                202233      0.02%      0.02% # Class of executed instruction
system.cpu.op_class::IntAlu                 550028809     66.80%     66.83% # Class of executed instruction
system.cpu.op_class::IntMult                   125092      0.02%     66.84% # Class of executed instruction
system.cpu.op_class::IntDiv                   1153479      0.14%     66.98% # Class of executed instruction
system.cpu.op_class::FloatAdd                  183131      0.02%     67.00% # Class of executed instruction
system.cpu.op_class::FloatCmp                       0      0.00%     67.00% # Class of executed instruction
system.cpu.op_class::FloatCvt                       0      0.00%     67.00% # Class of executed instruction
system.cpu.op_class::FloatMult                      0      0.00%     67.00% # Class of executed instruction
system.cpu.op_class::FloatDiv                       0      0.00%     67.00% # Class of executed instruction
system.cpu.op_class::FloatSqrt                      0      0.00%     67.00% # Class of executed instruction
system.cpu.op_class::SimdAdd                        0      0.00%     67.00% # Class of executed instruction
system.cpu.op_class::SimdAddAcc                     0      0.00%     67.00% # Class of executed instruction
system.cpu.op_class::SimdAlu                        0      0.00%     67.00% # Class of executed instruction
system.cpu.op_class::SimdCmp                        0      0.00%     67.00% # Class of executed instruction
system.cpu.op_class::SimdCvt                        0      0.00%     67.00% # Class of executed instruction
system.cpu.op_class::SimdMisc                       0      0.00%     67.00% # Class of executed instruction
system.cpu.op_class::SimdMult                       0      0.00%     67.00% # Class of executed instruction
system.cpu.op_class::SimdMultAcc                    0      0.00%     67.00% # Class of executed instruction
system.cpu.op_class::SimdShift                      0      0.00%     67.00% # Class of executed instruction
system.cpu.op_class::SimdShiftAcc                   0      0.00%     67.00% # Class of executed instruction
system.cpu.op_class::SimdSqrt                       0      0.00%     67.00% # Class of executed instruction
system.cpu.op_class::SimdFloatAdd                   0      0.00%     67.00% # Class of executed instruction
system.cpu.op_class::SimdFloatAlu                   0      0.00%     67.00% # Class of executed instruction
system.cpu.op_class::SimdFloatCmp                   0      0.00%     67.00% # Class of executed instruction
system.cpu.op_class::SimdFloatCvt                   0      0.00%     67.00% # Class of executed instruction
system.cpu.op_class::SimdFloatDiv                   0      0.00%     67.00% # Class of executed instruction
system.cpu.op_class::SimdFloatMisc                  0      0.00%     67.00% # Class of executed instruction
system.cpu.op_class::SimdFloatMult                  0      0.00%     67.00% # Class of executed instruction
system.cpu.op_class::SimdFloatMultAcc               0      0.00%     67.00% # Class of executed instruction
system.cpu.op_class::SimdFloatSqrt                  0      0.00%     67.00% # Class of executed instruction
system.cpu.op_class::MemRead                157213786     19.09%     86.10% # Class of executed instruction
system.cpu.op_class::MemWrite               114460158     13.90%    100.00% # Class of executed instruction
system.cpu.op_class::IprAccess                      0      0.00%    100.00% # Class of executed instruction
system.cpu.op_class::InstPrefetch                   0      0.00%    100.00% # Class of executed instruction
system.cpu.op_class::total                  823366688                       # Class of executed instruction
system.cpu.dcache.tags.replacements           8600507                       # number of replacements
system.cpu.dcache.tags.tagsinuse           511.969685                       # Cycle average of tags in use
system.cpu.dcache.tags.total_refs           263073528                       # Total number of references to valid blocks.
system.cpu.dcache.tags.sampled_refs           8601019                       # Sample count of references to valid blocks.
system.cpu.dcache.tags.avg_refs             30.586321                       # Average number of references to valid blocks.
system.cpu.dcache.tags.warmup_cycle         354638500                       # Cycle when the warmup percentage was hit.
system.cpu.dcache.tags.occ_blocks::cpu.data   511.969685                       # Average occupied blocks per requestor
system.cpu.dcache.tags.occ_percent::cpu.data     0.999941                       # Average percentage of cache occupancy
system.cpu.dcache.tags.occ_percent::total     0.999941                       # Average percentage of cache occupancy
system.cpu.dcache.tags.occ_task_id_blocks::1024          512                       # Occupied blocks per task id
system.cpu.dcache.tags.age_task_id_blocks_1024::0            5                       # Occupied blocks per task id
system.cpu.dcache.tags.age_task_id_blocks_1024::1           54                       # Occupied blocks per task id
system.cpu.dcache.tags.age_task_id_blocks_1024::2          163                       # Occupied blocks per task id
system.cpu.dcache.tags.age_task_id_blocks_1024::3          163                       # Occupied blocks per task id
system.cpu.dcache.tags.age_task_id_blocks_1024::4          127                       # Occupied blocks per task id
system.cpu.dcache.tags.occ_task_id_percent::1024            1                       # Percentage of cache occupancy per task id
system.cpu.dcache.tags.tag_accesses        2181997395                       # Number of tag accesses
system.cpu.dcache.tags.data_accesses       2181997395                       # Number of data accesses
system.cpu.dcache.ReadReq_hits::cpu.data    156998276                       # number of ReadReq hits
system.cpu.dcache.ReadReq_hits::total       156998276                       # number of ReadReq hits
system.cpu.dcache.WriteReq_hits::cpu.data    106075252                       # number of WriteReq hits
system.cpu.dcache.WriteReq_hits::total      106075252                       # number of WriteReq hits
system.cpu.dcache.demand_hits::cpu.data     263073528                       # number of demand (read+write) hits
system.cpu.dcache.demand_hits::total        263073528                       # number of demand (read+write) hits
system.cpu.dcache.overall_hits::cpu.data    263073528                       # number of overall hits
system.cpu.dcache.overall_hits::total       263073528                       # number of overall hits
system.cpu.dcache.ReadReq_misses::cpu.data       216102                       # number of ReadReq misses
system.cpu.dcache.ReadReq_misses::total        216102                       # number of ReadReq misses
system.cpu.dcache.WriteReq_misses::cpu.data      8384917                       # number of WriteReq misses
system.cpu.dcache.WriteReq_misses::total      8384917                       # number of WriteReq misses
system.cpu.dcache.demand_misses::cpu.data      8601019                       # number of demand (read+write) misses
system.cpu.dcache.demand_misses::total        8601019                       # number of demand (read+write) misses
system.cpu.dcache.overall_misses::cpu.data      8601019                       # number of overall misses
system.cpu.dcache.overall_misses::total       8601019                       # number of overall misses
system.cpu.dcache.ReadReq_miss_latency::cpu.data   9851918500                       # number of ReadReq miss cycles
system.cpu.dcache.ReadReq_miss_latency::total   9851918500                       # number of ReadReq miss cycles
system.cpu.dcache.WriteReq_miss_latency::cpu.data 677045526500                       # number of WriteReq miss cycles
system.cpu.dcache.WriteReq_miss_latency::total 677045526500                       # number of WriteReq miss cycles
system.cpu.dcache.demand_miss_latency::cpu.data 686897445000                       # number of demand (read+write) miss cycles
system.cpu.dcache.demand_miss_latency::total 686897445000                       # number of demand (read+write) miss cycles
system.cpu.dcache.overall_miss_latency::cpu.data 686897445000                       # number of overall miss cycles
system.cpu.dcache.overall_miss_latency::total 686897445000                       # number of overall miss cycles
system.cpu.dcache.ReadReq_accesses::cpu.data    157214378                       # number of ReadReq accesses(hits+misses)
system.cpu.dcache.ReadReq_accesses::total    157214378                       # number of ReadReq accesses(hits+misses)
system.cpu.dcache.WriteReq_accesses::cpu.data    114460169                       # number of WriteReq accesses(hits+misses)
system.cpu.dcache.WriteReq_accesses::total    114460169                       # number of WriteReq accesses(hits+misses)
system.cpu.dcache.demand_accesses::cpu.data    271674547                       # number of demand (read+write) accesses
system.cpu.dcache.demand_accesses::total    271674547                       # number of demand (read+write) accesses
system.cpu.dcache.overall_accesses::cpu.data    271674547                       # number of overall (read+write) accesses
system.cpu.dcache.overall_accesses::total    271674547                       # number of overall (read+write) accesses
system.cpu.dcache.ReadReq_miss_rate::cpu.data     0.001375                       # miss rate for ReadReq accesses
system.cpu.dcache.ReadReq_miss_rate::total     0.001375                       # miss rate for ReadReq accesses
system.cpu.dcache.WriteReq_miss_rate::cpu.data     0.073256                       # miss rate for WriteReq accesses
system.cpu.dcache.WriteReq_miss_rate::total     0.073256                       # miss rate for WriteReq accesses
system.cpu.dcache.demand_miss_rate::cpu.data     0.031659                       # miss rate for demand accesses
system.cpu.dcache.demand_miss_rate::total     0.031659                       # miss rate for demand accesses
system.cpu.dcache.overall_miss_rate::cpu.data     0.031659                       # miss rate for overall accesses
system.cpu.dcache.overall_miss_rate::total     0.031659                       # miss rate for overall accesses
system.cpu.dcache.ReadReq_avg_miss_latency::cpu.data 45589.205560                       # average ReadReq miss latency
system.cpu.dcache.ReadReq_avg_miss_latency::total 45589.205560                       # average ReadReq miss latency
system.cpu.dcache.WriteReq_avg_miss_latency::cpu.data 80745.644411                       # average WriteReq miss latency
system.cpu.dcache.WriteReq_avg_miss_latency::total 80745.644411                       # average WriteReq miss latency
system.cpu.dcache.demand_avg_miss_latency::cpu.data 79862.333172                       # average overall miss latency
system.cpu.dcache.demand_avg_miss_latency::total 79862.333172                       # average overall miss latency
system.cpu.dcache.overall_avg_miss_latency::cpu.data 79862.333172                       # average overall miss latency
system.cpu.dcache.overall_avg_miss_latency::total 79862.333172                       # average overall miss latency
system.cpu.dcache.blocked_cycles::no_mshrs            0                       # number of cycles access was blocked
system.cpu.dcache.blocked_cycles::no_targets            0                       # number of cycles access was blocked
system.cpu.dcache.blocked::no_mshrs                 0                       # number of cycles access was blocked
system.cpu.dcache.blocked::no_targets               0                       # number of cycles access was blocked
system.cpu.dcache.avg_blocked_cycles::no_mshrs          nan                       # average number of cycles each access was blocked
system.cpu.dcache.avg_blocked_cycles::no_targets          nan                       # average number of cycles each access was blocked
system.cpu.dcache.fast_writes                       0                       # number of fast writes performed
system.cpu.dcache.cache_copies                      0                       # number of cache copies performed
system.cpu.dcache.writebacks::writebacks      8489253                       # number of writebacks
system.cpu.dcache.writebacks::total           8489253                       # number of writebacks
system.cpu.dcache.ReadReq_mshr_misses::cpu.data       216102                       # number of ReadReq MSHR misses
system.cpu.dcache.ReadReq_mshr_misses::total       216102                       # number of ReadReq MSHR misses
system.cpu.dcache.WriteReq_mshr_misses::cpu.data      8384917                       # number of WriteReq MSHR misses
system.cpu.dcache.WriteReq_mshr_misses::total      8384917                       # number of WriteReq MSHR misses
system.cpu.dcache.demand_mshr_misses::cpu.data      8601019                       # number of demand (read+write) MSHR misses
system.cpu.dcache.demand_mshr_misses::total      8601019                       # number of demand (read+write) MSHR misses
system.cpu.dcache.overall_mshr_misses::cpu.data      8601019                       # number of overall MSHR misses
system.cpu.dcache.overall_mshr_misses::total      8601019                       # number of overall MSHR misses
system.cpu.dcache.ReadReq_mshr_miss_latency::cpu.data   9635816500                       # number of ReadReq MSHR miss cycles
system.cpu.dcache.ReadReq_mshr_miss_latency::total   9635816500                       # number of ReadReq MSHR miss cycles
system.cpu.dcache.WriteReq_mshr_miss_latency::cpu.data 668660609500                       # number of WriteReq MSHR miss cycles
system.cpu.dcache.WriteReq_mshr_miss_latency::total 668660609500                       # number of WriteReq MSHR miss cycles
system.cpu.dcache.demand_mshr_miss_latency::cpu.data 678296426000                       # number of demand (read+write) MSHR miss cycles
system.cpu.dcache.demand_mshr_miss_latency::total 678296426000                       # number of demand (read+write) MSHR miss cycles
system.cpu.dcache.overall_mshr_miss_latency::cpu.data 678296426000                       # number of overall MSHR miss cycles
system.cpu.dcache.overall_mshr_miss_latency::total 678296426000                       # number of overall MSHR miss cycles
system.cpu.dcache.ReadReq_mshr_miss_rate::cpu.data     0.001375                       # mshr miss rate for ReadReq accesses
system.cpu.dcache.ReadReq_mshr_miss_rate::total     0.001375                       # mshr miss rate for ReadReq accesses
system.cpu.dcache.WriteReq_mshr_miss_rate::cpu.data     0.073256                       # mshr miss rate for WriteReq accesses
system.cpu.dcache.WriteReq_mshr_miss_rate::total     0.073256                       # mshr miss rate for WriteReq accesses
system.cpu.dcache.demand_mshr_miss_rate::cpu.data     0.031659                       # mshr miss rate for demand accesses
system.cpu.dcache.demand_mshr_miss_rate::total     0.031659                       # mshr miss rate for demand accesses
system.cpu.dcache.overall_mshr_miss_rate::cpu.data     0.031659                       # mshr miss rate for overall accesses
system.cpu.dcache.overall_mshr_miss_rate::total     0.031659                       # mshr miss rate for overall accesses
system.cpu.dcache.ReadReq_avg_mshr_miss_latency::cpu.data 44589.205560                       # average ReadReq mshr miss latency
system.cpu.dcache.ReadReq_avg_mshr_miss_latency::total 44589.205560                       # average ReadReq mshr miss latency
system.cpu.dcache.WriteReq_avg_mshr_miss_latency::cpu.data 79745.644411                       # average WriteReq mshr miss latency
system.cpu.dcache.WriteReq_avg_mshr_miss_latency::total 79745.644411                       # average WriteReq mshr miss latency
system.cpu.dcache.demand_avg_mshr_miss_latency::cpu.data 78862.333172                       # average overall mshr miss latency
system.cpu.dcache.demand_avg_mshr_miss_latency::total 78862.333172                       # average overall mshr miss latency
system.cpu.dcache.overall_avg_mshr_miss_latency::cpu.data 78862.333172                       # average overall mshr miss latency
system.cpu.dcache.overall_avg_mshr_miss_latency::total 78862.333172                       # average overall mshr miss latency
system.cpu.dcache.no_allocate_misses                0                       # Number of misses that were no-allocate
system.cpu.dtb_walker_cache.tags.replacements            0                       # number of replacements
system.cpu.dtb_walker_cache.tags.tagsinuse            0                       # Cycle average of tags in use
system.cpu.dtb_walker_cache.tags.total_refs            0                       # Total number of references to valid blocks.
system.cpu.dtb_walker_cache.tags.sampled_refs            0                       # Sample count of references to valid blocks.
system.cpu.dtb_walker_cache.tags.avg_refs          nan                       # Average number of references to valid blocks.
system.cpu.dtb_walker_cache.tags.warmup_cycle            0                       # Cycle when the warmup percentage was hit.
system.cpu.dtb_walker_cache.tags.tag_accesses            0                       # Number of tag accesses
system.cpu.dtb_walker_cache.tags.data_accesses            0                       # Number of data accesses
system.cpu.dtb_walker_cache.blocked_cycles::no_mshrs            0                       # number of cycles access was blocked
system.cpu.dtb_walker_cache.blocked_cycles::no_targets            0                       # number of cycles access was blocked
system.cpu.dtb_walker_cache.blocked::no_mshrs            0                       # number of cycles access was blocked
system.cpu.dtb_walker_cache.blocked::no_targets            0                       # number of cycles access was blocked
system.cpu.dtb_walker_cache.avg_blocked_cycles::no_mshrs          nan                       # average number of cycles each access was blocked
system.cpu.dtb_walker_cache.avg_blocked_cycles::no_targets          nan                       # average number of cycles each access was blocked
system.cpu.dtb_walker_cache.fast_writes             0                       # number of fast writes performed
system.cpu.dtb_walker_cache.cache_copies            0                       # number of cache copies performed
system.cpu.dtb_walker_cache.no_allocate_misses            0                       # Number of misses that were no-allocate
system.cpu.icache.tags.replacements           3503776                       # number of replacements
system.cpu.icache.tags.tagsinuse           438.099297                       # Cycle average of tags in use
system.cpu.icache.tags.total_refs           671849375                       # Total number of references to valid blocks.
system.cpu.icache.tags.sampled_refs           3504287                       # Sample count of references to valid blocks.
system.cpu.icache.tags.avg_refs            191.722132                       # Average number of references to valid blocks.
system.cpu.icache.tags.warmup_cycle                 0                       # Cycle when the warmup percentage was hit.
system.cpu.icache.tags.occ_blocks::cpu.inst   438.099297                       # Average occupied blocks per requestor
system.cpu.icache.tags.occ_percent::cpu.inst     0.855663                       # Average percentage of cache occupancy
system.cpu.icache.tags.occ_percent::total     0.855663                       # Average percentage of cache occupancy
system.cpu.icache.tags.occ_task_id_blocks::1024          511                       # Occupied blocks per task id
system.cpu.icache.tags.age_task_id_blocks_1024::0            9                       # Occupied blocks per task id
system.cpu.icache.tags.age_task_id_blocks_1024::1          107                       # Occupied blocks per task id
system.cpu.icache.tags.age_task_id_blocks_1024::2           29                       # Occupied blocks per task id
system.cpu.icache.tags.age_task_id_blocks_1024::3           12                       # Occupied blocks per task id
system.cpu.icache.tags.age_task_id_blocks_1024::4          354                       # Occupied blocks per task id
system.cpu.icache.tags.occ_task_id_percent::1024     0.998047                       # Percentage of cache occupancy per task id
system.cpu.icache.tags.tag_accesses         678857949                       # Number of tag accesses
system.cpu.icache.tags.data_accesses        678857949                       # Number of data accesses
system.cpu.icache.ReadReq_hits::cpu.inst    671849375                       # number of ReadReq hits
system.cpu.icache.ReadReq_hits::total       671849375                       # number of ReadReq hits
system.cpu.icache.demand_hits::cpu.inst     671849375                       # number of demand (read+write) hits
system.cpu.icache.demand_hits::total        671849375                       # number of demand (read+write) hits
system.cpu.icache.overall_hits::cpu.inst    671849375                       # number of overall hits
system.cpu.icache.overall_hits::total       671849375                       # number of overall hits
system.cpu.icache.ReadReq_misses::cpu.inst      3504287                       # number of ReadReq misses
system.cpu.icache.ReadReq_misses::total       3504287                       # number of ReadReq misses
system.cpu.icache.demand_misses::cpu.inst      3504287                       # number of demand (read+write) misses
system.cpu.icache.demand_misses::total        3504287                       # number of demand (read+write) misses
system.cpu.icache.overall_misses::cpu.inst      3504287                       # number of overall misses
system.cpu.icache.overall_misses::total       3504287                       # number of overall misses
system.cpu.icache.ReadReq_miss_latency::cpu.inst  46346901500                       # number of ReadReq miss cycles
system.cpu.icache.ReadReq_miss_latency::total  46346901500                       # number of ReadReq miss cycles
system.cpu.icache.demand_miss_latency::cpu.inst  46346901500                       # number of demand (read+write) miss cycles
system.cpu.icache.demand_miss_latency::total  46346901500                       # number of demand (read+write) miss cycles
system.cpu.icache.overall_miss_latency::cpu.inst  46346901500                       # number of overall miss cycles
system.cpu.icache.overall_miss_latency::total  46346901500                       # number of overall miss cycles
system.cpu.icache.ReadReq_accesses::cpu.inst    675353662                       # number of ReadReq accesses(hits+misses)
system.cpu.icache.ReadReq_accesses::total    675353662                       # number of ReadReq accesses(hits+misses)
system.cpu.icache.demand_accesses::cpu.inst    675353662                       # number of demand (read+write) accesses
system.cpu.icache.demand_accesses::total    675353662                       # number of demand (read+write) accesses
system.cpu.icache.overall_accesses::cpu.inst    675353662                       # number of overall (read+write) accesses
system.cpu.icache.overall_accesses::total    675353662                       # number of overall (read+write) accesses
system.cpu.icache.ReadReq_miss_rate::cpu.inst     0.005189                       # miss rate for ReadReq accesses
system.cpu.icache.ReadReq_miss_rate::total     0.005189                       # miss rate for ReadReq accesses
system.cpu.icache.demand_miss_rate::cpu.inst     0.005189                       # miss rate for demand accesses
system.cpu.icache.demand_miss_rate::total     0.005189                       # miss rate for demand accesses
system.cpu.icache.overall_miss_rate::cpu.inst     0.005189                       # miss rate for overall accesses
system.cpu.icache.overall_miss_rate::total     0.005189                       # miss rate for overall accesses
system.cpu.icache.ReadReq_avg_miss_latency::cpu.inst 13225.772176                       # average ReadReq miss latency
system.cpu.icache.ReadReq_avg_miss_latency::total 13225.772176                       # average ReadReq miss latency
system.cpu.icache.demand_avg_miss_latency::cpu.inst 13225.772176                       # average overall miss latency
system.cpu.icache.demand_avg_miss_latency::total 13225.772176                       # average overall miss latency
system.cpu.icache.overall_avg_miss_latency::cpu.inst 13225.772176                       # average overall miss latency
system.cpu.icache.overall_avg_miss_latency::total 13225.772176                       # average overall miss latency
system.cpu.icache.blocked_cycles::no_mshrs            0                       # number of cycles access was blocked
system.cpu.icache.blocked_cycles::no_targets            0                       # number of cycles access was blocked
system.cpu.icache.blocked::no_mshrs                 0                       # number of cycles access was blocked
system.cpu.icache.blocked::no_targets               0                       # number of cycles access was blocked
system.cpu.icache.avg_blocked_cycles::no_mshrs          nan                       # average number of cycles each access was blocked
system.cpu.icache.avg_blocked_cycles::no_targets          nan                       # average number of cycles each access was blocked
system.cpu.icache.fast_writes                       0                       # number of fast writes performed
system.cpu.icache.cache_copies                      0                       # number of cache copies performed
system.cpu.icache.writebacks::writebacks      3503776                       # number of writebacks
system.cpu.icache.writebacks::total           3503776                       # number of writebacks
system.cpu.icache.ReadReq_mshr_misses::cpu.inst      3504287                       # number of ReadReq MSHR misses
system.cpu.icache.ReadReq_mshr_misses::total      3504287                       # number of ReadReq MSHR misses
system.cpu.icache.demand_mshr_misses::cpu.inst      3504287                       # number of demand (read+write) MSHR misses
system.cpu.icache.demand_mshr_misses::total      3504287                       # number of demand (read+write) MSHR misses
system.cpu.icache.overall_mshr_misses::cpu.inst      3504287                       # number of overall MSHR misses
system.cpu.icache.overall_mshr_misses::total      3504287                       # number of overall MSHR misses
system.cpu.icache.ReadReq_mshr_miss_latency::cpu.inst  42842614500                       # number of ReadReq MSHR miss cycles
system.cpu.icache.ReadReq_mshr_miss_latency::total  42842614500                       # number of ReadReq MSHR miss cycles
system.cpu.icache.demand_mshr_miss_latency::cpu.inst  42842614500                       # number of demand (read+write) MSHR miss cycles
system.cpu.icache.demand_mshr_miss_latency::total  42842614500                       # number of demand (read+write) MSHR miss cycles
system.cpu.icache.overall_mshr_miss_latency::cpu.inst  42842614500                       # number of overall MSHR miss cycles
system.cpu.icache.overall_mshr_miss_latency::total  42842614500                       # number of overall MSHR miss cycles
system.cpu.icache.ReadReq_mshr_miss_rate::cpu.inst     0.005189                       # mshr miss rate for ReadReq accesses
system.cpu.icache.ReadReq_mshr_miss_rate::total     0.005189                       # mshr miss rate for ReadReq accesses
system.cpu.icache.demand_mshr_miss_rate::cpu.inst     0.005189                       # mshr miss rate for demand accesses
system.cpu.icache.demand_mshr_miss_rate::total     0.005189                       # mshr miss rate for demand accesses
system.cpu.icache.overall_mshr_miss_rate::cpu.inst     0.005189                       # mshr miss rate for overall accesses
system.cpu.icache.overall_mshr_miss_rate::total     0.005189                       # mshr miss rate for overall accesses
system.cpu.icache.ReadReq_avg_mshr_miss_latency::cpu.inst 12225.772176                       # average ReadReq mshr miss latency
system.cpu.icache.ReadReq_avg_mshr_miss_latency::total 12225.772176                       # average ReadReq mshr miss latency
system.cpu.icache.demand_avg_mshr_miss_latency::cpu.inst 12225.772176                       # average overall mshr miss latency
system.cpu.icache.demand_avg_mshr_miss_latency::total 12225.772176                       # average overall mshr miss latency
system.cpu.icache.overall_avg_mshr_miss_latency::cpu.inst 12225.772176                       # average overall mshr miss latency
system.cpu.icache.overall_avg_mshr_miss_latency::total 12225.772176                       # average overall mshr miss latency
system.cpu.icache.no_allocate_misses                0                       # Number of misses that were no-allocate
system.cpu.itb_walker_cache.tags.replacements            0                       # number of replacements
system.cpu.itb_walker_cache.tags.tagsinuse            0                       # Cycle average of tags in use
system.cpu.itb_walker_cache.tags.total_refs            0                       # Total number of references to valid blocks.
system.cpu.itb_walker_cache.tags.sampled_refs            0                       # Sample count of references to valid blocks.
system.cpu.itb_walker_cache.tags.avg_refs          nan                       # Average number of references to valid blocks.
system.cpu.itb_walker_cache.tags.warmup_cycle            0                       # Cycle when the warmup percentage was hit.
system.cpu.itb_walker_cache.tags.tag_accesses            0                       # Number of tag accesses
system.cpu.itb_walker_cache.tags.data_accesses            0                       # Number of data accesses
system.cpu.itb_walker_cache.blocked_cycles::no_mshrs            0                       # number of cycles access was blocked
system.cpu.itb_walker_cache.blocked_cycles::no_targets            0                       # number of cycles access was blocked
system.cpu.itb_walker_cache.blocked::no_mshrs            0                       # number of cycles access was blocked
system.cpu.itb_walker_cache.blocked::no_targets            0                       # number of cycles access was blocked
system.cpu.itb_walker_cache.avg_blocked_cycles::no_mshrs          nan                       # average number of cycles each access was blocked
system.cpu.itb_walker_cache.avg_blocked_cycles::no_targets          nan                       # average number of cycles each access was blocked
system.cpu.itb_walker_cache.fast_writes             0                       # number of fast writes performed
system.cpu.itb_walker_cache.cache_copies            0                       # number of cache copies performed
system.cpu.itb_walker_cache.no_allocate_misses            0                       # Number of misses that were no-allocate
system.l2.tags.replacements                   8389238                       # number of replacements
system.l2.tags.tagsinuse                 15995.498782                       # Cycle average of tags in use
system.l2.tags.total_refs                     7400697                       # Total number of references to valid blocks.
system.l2.tags.sampled_refs                   8405486                       # Sample count of references to valid blocks.
system.l2.tags.avg_refs                      0.880460                       # Average number of references to valid blocks.
system.l2.tags.warmup_cycle                         0                       # Cycle when the warmup percentage was hit.
system.l2.tags.occ_blocks::writebacks    10230.848401                       # Average occupied blocks per requestor
system.l2.tags.occ_blocks::cpu.inst        249.675986                       # Average occupied blocks per requestor
system.l2.tags.occ_blocks::cpu.data       5514.974395                       # Average occupied blocks per requestor
system.l2.tags.occ_percent::writebacks       0.624441                       # Average percentage of cache occupancy
system.l2.tags.occ_percent::cpu.inst         0.015239                       # Average percentage of cache occupancy
system.l2.tags.occ_percent::cpu.data         0.336607                       # Average percentage of cache occupancy
system.l2.tags.occ_percent::total            0.976288                       # Average percentage of cache occupancy
system.l2.tags.occ_task_id_blocks::1024         16248                       # Occupied blocks per task id
system.l2.tags.age_task_id_blocks_1024::0            2                       # Occupied blocks per task id
system.l2.tags.age_task_id_blocks_1024::1           22                       # Occupied blocks per task id
system.l2.tags.age_task_id_blocks_1024::2          119                       # Occupied blocks per task id
system.l2.tags.age_task_id_blocks_1024::3          886                       # Occupied blocks per task id
system.l2.tags.age_task_id_blocks_1024::4        15219                       # Occupied blocks per task id
system.l2.tags.occ_task_id_percent::1024     0.991699                       # Percentage of cache occupancy per task id
system.l2.tags.tag_accesses                  40999991                       # Number of tag accesses
system.l2.tags.data_accesses                 40999991                       # Number of data accesses
system.l2.WritebackDirty_hits::writebacks      8489253                       # number of WritebackDirty hits
system.l2.WritebackDirty_hits::total          8489253                       # number of WritebackDirty hits
system.l2.WritebackClean_hits::writebacks      3503776                       # number of WritebackClean hits
system.l2.WritebackClean_hits::total          3503776                       # number of WritebackClean hits
system.l2.ReadExReq_hits::cpu.data              87679                       # number of ReadExReq hits
system.l2.ReadExReq_hits::total                 87679                       # number of ReadExReq hits
system.l2.ReadCleanReq_hits::cpu.inst         3494389                       # number of ReadCleanReq hits
system.l2.ReadCleanReq_hits::total            3494389                       # number of ReadCleanReq hits
system.l2.ReadSharedReq_hits::cpu.data         124803                       # number of ReadSharedReq hits
system.l2.ReadSharedReq_hits::total            124803                       # number of ReadSharedReq hits
system.l2.demand_hits::cpu.inst               3494389                       # number of demand (read+write) hits
system.l2.demand_hits::cpu.data                212482                       # number of demand (read+write) hits
system.l2.demand_hits::total                  3706871                       # number of demand (read+write) hits
system.l2.overall_hits::cpu.inst              3494389                       # number of overall hits
system.l2.overall_hits::cpu.data               212482                       # number of overall hits
system.l2.overall_hits::total                 3706871                       # number of overall hits
system.l2.ReadExReq_misses::cpu.data          8297238                       # number of ReadExReq misses
system.l2.ReadExReq_misses::total             8297238                       # number of ReadExReq misses
system.l2.ReadCleanReq_misses::cpu.inst          9898                       # number of ReadCleanReq misses
system.l2.ReadCleanReq_misses::total             9898                       # number of ReadCleanReq misses
system.l2.ReadSharedReq_misses::cpu.data        91299                       # number of ReadSharedReq misses
system.l2.ReadSharedReq_misses::total           91299                       # number of ReadSharedReq misses
system.l2.demand_misses::cpu.inst                9898                       # number of demand (read+write) misses
system.l2.demand_misses::cpu.data             8388537                       # number of demand (read+write) misses
system.l2.demand_misses::total                8398435                       # number of demand (read+write) misses
system.l2.overall_misses::cpu.inst               9898                       # number of overall misses
system.l2.overall_misses::cpu.data            8388537                       # number of overall misses
system.l2.overall_misses::total               8398435                       # number of overall misses
system.l2.ReadExReq_miss_latency::cpu.data 655161987500                       # number of ReadExReq miss cycles
system.l2.ReadExReq_miss_latency::total  655161987500                       # number of ReadExReq miss cycles
system.l2.ReadCleanReq_miss_latency::cpu.inst    838314000                       # number of ReadCleanReq miss cycles
system.l2.ReadCleanReq_miss_latency::total    838314000                       # number of ReadCleanReq miss cycles
system.l2.ReadSharedReq_miss_latency::cpu.data   8000472000                       # number of ReadSharedReq miss cycles
system.l2.ReadSharedReq_miss_latency::total   8000472000                       # number of ReadSharedReq miss cycles
system.l2.demand_miss_latency::cpu.inst     838314000                       # number of demand (read+write) miss cycles
system.l2.demand_miss_latency::cpu.data  663162459500                       # number of demand (read+write) miss cycles
system.l2.demand_miss_latency::total     664000773500                       # number of demand (read+write) miss cycles
system.l2.overall_miss_latency::cpu.inst    838314000                       # number of overall miss cycles
system.l2.overall_miss_latency::cpu.data 663162459500                       # number of overall miss cycles
system.l2.overall_miss_latency::total    664000773500                       # number of overall miss cycles
system.l2.WritebackDirty_accesses::writebacks      8489253                       # number of WritebackDirty accesses(hits+misses)
system.l2.WritebackDirty_accesses::total      8489253                       # number of WritebackDirty accesses(hits+misses)
system.l2.WritebackClean_accesses::writebacks      3503776                       # number of WritebackClean accesses(hits+misses)
system.l2.WritebackClean_accesses::total      3503776                       # number of WritebackClean accesses(hits+misses)
system.l2.ReadExReq_accesses::cpu.data        8384917                       # number of ReadExReq accesses(hits+misses)
system.l2.ReadExReq_accesses::total           8384917                       # number of ReadExReq accesses(hits+misses)
system.l2.ReadCleanReq_accesses::cpu.inst      3504287                       # number of ReadCleanReq accesses(hits+misses)
system.l2.ReadCleanReq_accesses::total        3504287                       # number of ReadCleanReq accesses(hits+misses)
system.l2.ReadSharedReq_accesses::cpu.data       216102                       # number of ReadSharedReq accesses(hits+misses)
system.l2.ReadSharedReq_accesses::total        216102                       # number of ReadSharedReq accesses(hits+misses)
system.l2.demand_accesses::cpu.inst           3504287                       # number of demand (read+write) accesses
system.l2.demand_accesses::cpu.data           8601019                       # number of demand (read+write) accesses
system.l2.demand_accesses::total             12105306                       # number of demand (read+write) accesses
system.l2.overall_accesses::cpu.inst          3504287                       # number of overall (read+write) accesses
system.l2.overall_accesses::cpu.data          8601019                       # number of overall (read+write) accesses
system.l2.overall_accesses::total            12105306                       # number of overall (read+write) accesses
system.l2.ReadExReq_miss_rate::cpu.data      0.989543                       # miss rate for ReadExReq accesses
system.l2.ReadExReq_miss_rate::total         0.989543                       # miss rate for ReadExReq accesses
system.l2.ReadCleanReq_miss_rate::cpu.inst     0.002825                       # miss rate for ReadCleanReq accesses
system.l2.ReadCleanReq_miss_rate::total      0.002825                       # miss rate for ReadCleanReq accesses
system.l2.ReadSharedReq_miss_rate::cpu.data     0.422481                       # miss rate for ReadSharedReq accesses
system.l2.ReadSharedReq_miss_rate::total     0.422481                       # miss rate for ReadSharedReq accesses
system.l2.demand_miss_rate::cpu.inst         0.002825                       # miss rate for demand accesses
system.l2.demand_miss_rate::cpu.data         0.975296                       # miss rate for demand accesses
system.l2.demand_miss_rate::total            0.693781                       # miss rate for demand accesses
system.l2.overall_miss_rate::cpu.inst        0.002825                       # miss rate for overall accesses
system.l2.overall_miss_rate::cpu.data        0.975296                       # miss rate for overall accesses
system.l2.overall_miss_rate::total           0.693781                       # miss rate for overall accesses
system.l2.ReadExReq_avg_miss_latency::cpu.data 78961.455306                       # average ReadExReq miss latency
system.l2.ReadExReq_avg_miss_latency::total 78961.455306                       # average ReadExReq miss latency
system.l2.ReadCleanReq_avg_miss_latency::cpu.inst 84695.291978                       # average ReadCleanReq miss latency
system.l2.ReadCleanReq_avg_miss_latency::total 84695.291978                       # average ReadCleanReq miss latency
system.l2.ReadSharedReq_avg_miss_latency::cpu.data 87629.349719                       # average ReadSharedReq miss latency
system.l2.ReadSharedReq_avg_miss_latency::total 87629.349719                       # average ReadSharedReq miss latency
system.l2.demand_avg_miss_latency::cpu.inst 84695.291978                       # average overall miss latency
system.l2.demand_avg_miss_latency::cpu.data 79055.794771                       # average overall miss latency
system.l2.demand_avg_miss_latency::total 79062.441217                       # average overall miss latency
system.l2.overall_avg_miss_latency::cpu.inst 84695.291978                       # average overall miss latency
system.l2.overall_avg_miss_latency::cpu.data 79055.794771                       # average overall miss latency
system.l2.overall_avg_miss_latency::total 79062.441217                       # average overall miss latency
system.l2.blocked_cycles::no_mshrs                  0                       # number of cycles access was blocked
system.l2.blocked_cycles::no_targets                0                       # number of cycles access was blocked
system.l2.blocked::no_mshrs                         0                       # number of cycles access was blocked
system.l2.blocked::no_targets                       0                       # number of cycles access was blocked
system.l2.avg_blocked_cycles::no_mshrs            nan                       # average number of cycles each access was blocked
system.l2.avg_blocked_cycles::no_targets          nan                       # average number of cycles each access was blocked
system.l2.fast_writes                               0                       # number of fast writes performed
system.l2.cache_copies                              0                       # number of cache copies performed
system.l2.writebacks::writebacks              8348618                       # number of writebacks
system.l2.writebacks::total                   8348618                       # number of writebacks
system.l2.CleanEvict_mshr_misses::writebacks         8554                       # number of CleanEvict MSHR misses
system.l2.CleanEvict_mshr_misses::total          8554                       # number of CleanEvict MSHR misses
system.l2.ReadExReq_mshr_misses::cpu.data      8297238                       # number of ReadExReq MSHR misses
system.l2.ReadExReq_mshr_misses::total        8297238                       # number of ReadExReq MSHR misses
system.l2.ReadCleanReq_mshr_misses::cpu.inst         9898                       # number of ReadCleanReq MSHR misses
system.l2.ReadCleanReq_mshr_misses::total         9898                       # number of ReadCleanReq MSHR misses
system.l2.ReadSharedReq_mshr_misses::cpu.data        91299                       # number of ReadSharedReq MSHR misses
system.l2.ReadSharedReq_mshr_misses::total        91299                       # number of ReadSharedReq MSHR misses
system.l2.demand_mshr_misses::cpu.inst           9898                       # number of demand (read+write) MSHR misses
system.l2.demand_mshr_misses::cpu.data        8388537                       # number of demand (read+write) MSHR misses
system.l2.demand_mshr_misses::total           8398435                       # number of demand (read+write) MSHR misses
system.l2.overall_mshr_misses::cpu.inst          9898                       # number of overall MSHR misses
system.l2.overall_mshr_misses::cpu.data       8388537                       # number of overall MSHR misses
system.l2.overall_mshr_misses::total          8398435                       # number of overall MSHR misses
system.l2.ReadExReq_mshr_miss_latency::cpu.data 572189607500                       # number of ReadExReq MSHR miss cycles
system.l2.ReadExReq_mshr_miss_latency::total 572189607500                       # number of ReadExReq MSHR miss cycles
system.l2.ReadCleanReq_mshr_miss_latency::cpu.inst    739334000                       # number of ReadCleanReq MSHR miss cycles
system.l2.ReadCleanReq_mshr_miss_latency::total    739334000                       # number of ReadCleanReq MSHR miss cycles
system.l2.ReadSharedReq_mshr_miss_latency::cpu.data   7087482000                       # number of ReadSharedReq MSHR miss cycles
system.l2.ReadSharedReq_mshr_miss_latency::total   7087482000                       # number of ReadSharedReq MSHR miss cycles
system.l2.demand_mshr_miss_latency::cpu.inst    739334000                       # number of demand (read+write) MSHR miss cycles
system.l2.demand_mshr_miss_latency::cpu.data 579277089500                       # number of demand (read+write) MSHR miss cycles
system.l2.demand_mshr_miss_latency::total 580016423500                       # number of demand (read+write) MSHR miss cycles
system.l2.overall_mshr_miss_latency::cpu.inst    739334000                       # number of overall MSHR miss cycles
system.l2.overall_mshr_miss_latency::cpu.data 579277089500                       # number of overall MSHR miss cycles
system.l2.overall_mshr_miss_latency::total 580016423500                       # number of overall MSHR miss cycles
system.l2.CleanEvict_mshr_miss_rate::writebacks          inf                       # mshr miss rate for CleanEvict accesses
system.l2.CleanEvict_mshr_miss_rate::total          inf                       # mshr miss rate for CleanEvict accesses
system.l2.ReadExReq_mshr_miss_rate::cpu.data     0.989543                       # mshr miss rate for ReadExReq accesses
system.l2.ReadExReq_mshr_miss_rate::total     0.989543                       # mshr miss rate for ReadExReq accesses
system.l2.ReadCleanReq_mshr_miss_rate::cpu.inst     0.002825                       # mshr miss rate for ReadCleanReq accesses
system.l2.ReadCleanReq_mshr_miss_rate::total     0.002825                       # mshr miss rate for ReadCleanReq accesses
system.l2.ReadSharedReq_mshr_miss_rate::cpu.data     0.422481                       # mshr miss rate for ReadSharedReq accesses
system.l2.ReadSharedReq_mshr_miss_rate::total     0.422481                       # mshr miss rate for ReadSharedReq accesses
system.l2.demand_mshr_miss_rate::cpu.inst     0.002825                       # mshr miss rate for demand accesses
system.l2.demand_mshr_miss_rate::cpu.data     0.975296                       # mshr miss rate for demand accesses
system.l2.demand_mshr_miss_rate::total       0.693781                       # mshr miss rate for demand accesses
system.l2.overall_mshr_miss_rate::cpu.inst     0.002825                       # mshr miss rate for overall accesses
system.l2.overall_mshr_miss_rate::cpu.data     0.975296                       # mshr miss rate for overall accesses
system.l2.overall_mshr_miss_rate::total      0.693781                       # mshr miss rate for overall accesses
system.l2.ReadExReq_avg_mshr_miss_latency::cpu.data 68961.455306                       # average ReadExReq mshr miss latency
system.l2.ReadExReq_avg_mshr_miss_latency::total 68961.455306                       # average ReadExReq mshr miss latency
system.l2.ReadCleanReq_avg_mshr_miss_latency::cpu.inst 74695.291978                       # average ReadCleanReq mshr miss latency
system.l2.ReadCleanReq_avg_mshr_miss_latency::total 74695.291978                       # average ReadCleanReq mshr miss latency
system.l2.ReadSharedReq_avg_mshr_miss_latency::cpu.data 77629.349719                       # average ReadSharedReq mshr miss latency
system.l2.ReadSharedReq_avg_mshr_miss_latency::total 77629.349719                       # average ReadSharedReq mshr miss latency
system.l2.demand_avg_mshr_miss_latency::cpu.inst 74695.291978                       # average overall mshr miss latency
system.l2.demand_avg_mshr_miss_latency::cpu.data 69055.794771                       # average overall mshr miss latency
system.l2.demand_avg_mshr_miss_latency::total 69062.441217                       # average overall mshr miss latency
system.l2.overall_avg_mshr_miss_latency::cpu.inst 74695.291978                       # average overall mshr miss latency
system.l2.overall_avg_mshr_miss_latency::cpu.data 69055.794771                       # average overall mshr miss latency
system.l2.overall_avg_mshr_miss_latency::total 69062.441217                       # average overall mshr miss latency
system.l2.no_allocate_misses                        0                       # Number of misses that were no-allocate
system.membus.trans_dist::ReadResp             101197                       # Transaction distribution
system.membus.trans_dist::WritebackDirty      8348618                       # Transaction distribution
system.membus.trans_dist::CleanEvict            33110                       # Transaction distribution
system.membus.trans_dist::ReadExReq           8297238                       # Transaction distribution
system.membus.trans_dist::ReadExResp          8297238                       # Transaction distribution
system.membus.trans_dist::ReadSharedReq        101197                       # Transaction distribution
system.membus.pkt_count_system.l2.mem_side::system.mem_ctrls.port     25178598                       # Packet count per connected master and slave (bytes)
system.membus.pkt_count_system.l2.mem_side::total     25178598                       # Packet count per connected master and slave (bytes)
system.membus.pkt_count::total               25178598                       # Packet count per connected master and slave (bytes)
system.membus.pkt_size_system.l2.mem_side::system.mem_ctrls.port   1071811392                       # Cumulative packet size per connected master and slave (bytes)
system.membus.pkt_size_system.l2.mem_side::total   1071811392                       # Cumulative packet size per connected master and slave (bytes)
system.membus.pkt_size::total              1071811392                       # Cumulative packet size per connected master and slave (bytes)
system.membus.snoops                                0                       # Total snoops (count)
system.membus.snoop_fanout::samples          16780163                       # Request fanout histogram
system.membus.snoop_fanout::mean                    0                       # Request fanout histogram
system.membus.snoop_fanout::stdev                   0                       # Request fanout histogram
system.membus.snoop_fanout::underflows              0      0.00%      0.00% # Request fanout histogram
system.membus.snoop_fanout::0                16780163    100.00%    100.00% # Request fanout histogram
system.membus.snoop_fanout::1                       0      0.00%    100.00% # Request fanout histogram
system.membus.snoop_fanout::overflows               0      0.00%    100.00% # Request fanout histogram
system.membus.snoop_fanout::min_value               0                       # Request fanout histogram
system.membus.snoop_fanout::max_value               0                       # Request fanout histogram
system.membus.snoop_fanout::total            16780163                       # Request fanout histogram
system.membus.reqLayer2.occupancy         50193156500                       # Layer occupancy (ticks)
system.membus.reqLayer2.utilization               3.0                       # Layer utilization (%)
system.membus.respLayer1.occupancy        44199791750                       # Layer occupancy (ticks)
system.membus.respLayer1.utilization              2.6                       # Layer utilization (%)
system.tol2bus.snoop_filter.tot_requests     24209589                       # Total number of requests made to the snoop filter.
system.tol2bus.snoop_filter.hit_single_requests     12104283                       # Number of requests hitting in the snoop filter with a single holder of the requested data.
system.tol2bus.snoop_filter.hit_multi_requests            1                       # Number of requests hitting in the snoop filter with multiple (>1) holders of the requested data.
system.tol2bus.snoop_filter.tot_snoops          16064                       # Total number of snoops made to the snoop filter.
system.tol2bus.snoop_filter.hit_single_snoops        16064                       # Number of snoops hitting in the snoop filter with a single holder of the requested data.
system.tol2bus.snoop_filter.hit_multi_snoops            0                       # Number of snoops hitting in the snoop filter with multiple (>1) holders of the requested data.
system.tol2bus.trans_dist::ReadResp           3720389                       # Transaction distribution
system.tol2bus.trans_dist::WritebackDirty     16837871                       # Transaction distribution
system.tol2bus.trans_dist::WritebackClean      3503776                       # Transaction distribution
system.tol2bus.trans_dist::CleanEvict          151873                       # Transaction distribution
system.tol2bus.trans_dist::ReadExReq          8384917                       # Transaction distribution
system.tol2bus.trans_dist::ReadExResp         8384917                       # Transaction distribution
system.tol2bus.trans_dist::ReadCleanReq       3504287                       # Transaction distribution
system.tol2bus.trans_dist::ReadSharedReq       216102                       # Transaction distribution
system.tol2bus.pkt_count_system.cpu.icache.mem_side::system.l2.cpu_side     10512350                       # Packet count per connected master and slave (bytes)
system.tol2bus.pkt_count_system.cpu.dcache.mem_side::system.l2.cpu_side     25802544                       # Packet count per connected master and slave (bytes)
system.tol2bus.pkt_count::total              36314894                       # Packet count per connected master and slave (bytes)
system.tol2bus.pkt_size_system.cpu.icache.mem_side::system.l2.cpu_side    448516032                       # Cumulative packet size per connected master and slave (bytes)
system.tol2bus.pkt_size_system.cpu.dcache.mem_side::system.l2.cpu_side   1093777408                       # Cumulative packet size per connected master and slave (bytes)
system.tol2bus.pkt_size::total             1542293440                       # Cumulative packet size per connected master and slave (bytes)
system.tol2bus.snoops                         8389238                       # Total snoops (count)
system.tol2bus.snoop_fanout::samples         20494544                       # Request fanout histogram
system.tol2bus.snoop_fanout::mean            0.000784                       # Request fanout histogram
system.tol2bus.snoop_fanout::stdev           0.027987                       # Request fanout histogram
system.tol2bus.snoop_fanout::underflows             0      0.00%      0.00% # Request fanout histogram
system.tol2bus.snoop_fanout::0               20478479     99.92%     99.92% # Request fanout histogram
system.tol2bus.snoop_fanout::1                  16065      0.08%    100.00% # Request fanout histogram
system.tol2bus.snoop_fanout::2                      0      0.00%    100.00% # Request fanout histogram
system.tol2bus.snoop_fanout::3                      0      0.00%    100.00% # Request fanout histogram
system.tol2bus.snoop_fanout::4                      0      0.00%    100.00% # Request fanout histogram
system.tol2bus.snoop_fanout::overflows              0      0.00%    100.00% # Request fanout histogram
system.tol2bus.snoop_fanout::min_value              0                       # Request fanout histogram
system.tol2bus.snoop_fanout::max_value              1                       # Request fanout histogram
system.tol2bus.snoop_fanout::total           20494544                       # Request fanout histogram
system.tol2bus.reqLayer0.occupancy        24097823500                       # Layer occupancy (ticks)
system.tol2bus.reqLayer0.utilization              1.4                       # Layer utilization (%)
system.tol2bus.respLayer0.occupancy        5256430500                       # Layer occupancy (ticks)
system.tol2bus.respLayer0.utilization             0.3                       # Layer utilization (%)
system.tol2bus.respLayer1.occupancy       12901528500                       # Layer occupancy (ticks)
system.tol2bus.respLayer1.utilization             0.8                       # Layer utilization (%)

---------- End Simulation Statistics   ----------
