
---------- Begin Simulation Statistics ----------
sim_seconds                                  1.669577                       # Number of seconds simulated
sim_ticks                                1669576618500                       # Number of ticks simulated
final_tick                               1669576618500                       # Number of ticks from beginning of simulation (restored from checkpoints and never reset)
sim_freq                                 1000000000000                       # Frequency of simulated ticks
host_inst_rate                                 193885                       # Simulator instruction rate (inst/s)
host_op_rate                                   319278                       # Simulator op (including micro ops) rate (op/s)
host_tick_rate                              647410431                       # Simulator tick rate (ticks/s)
host_mem_usage                                 834036                       # Number of bytes of host memory used
host_seconds                                  2578.85                       # Real time elapsed on the host
sim_insts                                   500000000                       # Number of instructions simulated
sim_ops                                     823366688                       # Number of ops (including micro ops) simulated
system.voltage_domain.voltage                       1                       # Voltage in Volts
system.clk_domain.clock                          1000                       # Clock period in ticks
system.mem_ctrls.bytes_read::cpu.inst          502784                       # Number of bytes read from this memory
system.mem_ctrls.bytes_read::cpu.data       537378112                       # Number of bytes read from this memory
system.mem_ctrls.bytes_read::total          537880896                       # Number of bytes read from this memory
system.mem_ctrls.bytes_inst_read::cpu.inst       502784                       # Number of instructions bytes read from this memory
system.mem_ctrls.bytes_inst_read::total        502784                       # Number of instructions bytes read from this memory
system.mem_ctrls.bytes_written::writebacks    534211008                       # Number of bytes written to this memory
system.mem_ctrls.bytes_written::total       534211008                       # Number of bytes written to this memory
system.mem_ctrls.num_reads::cpu.inst             7856                       # Number of read requests responded to by this memory
system.mem_ctrls.num_reads::cpu.data          8396533                       # Number of read requests responded to by this memory
system.mem_ctrls.num_reads::total             8404389                       # Number of read requests responded to by this memory
system.mem_ctrls.num_writes::writebacks       8347047                       # Number of write requests responded to by this memory
system.mem_ctrls.num_writes::total            8347047                       # Number of write requests responded to by this memory
system.mem_ctrls.bw_read::cpu.inst             301145                       # Total read bandwidth from this memory (bytes/s)
system.mem_ctrls.bw_read::cpu.data          321864900                       # Total read bandwidth from this memory (bytes/s)
system.mem_ctrls.bw_read::total             322166045                       # Total read bandwidth from this memory (bytes/s)
system.mem_ctrls.bw_inst_read::cpu.inst        301145                       # Instruction read bandwidth from this memory (bytes/s)
system.mem_ctrls.bw_inst_read::total           301145                       # Instruction read bandwidth from this memory (bytes/s)
system.mem_ctrls.bw_write::writebacks       319967950                       # Write bandwidth from this memory (bytes/s)
system.mem_ctrls.bw_write::total            319967950                       # Write bandwidth from this memory (bytes/s)
system.mem_ctrls.bw_total::writebacks       319967950                       # Total bandwidth to/from this memory (bytes/s)
system.mem_ctrls.bw_total::cpu.inst            301145                       # Total bandwidth to/from this memory (bytes/s)
system.mem_ctrls.bw_total::cpu.data         321864900                       # Total bandwidth to/from this memory (bytes/s)
system.mem_ctrls.bw_total::total            642133995                       # Total bandwidth to/from this memory (bytes/s)
system.mem_ctrls.readReqs                     8404389                       # Number of read requests accepted
system.mem_ctrls.writeReqs                    8347047                       # Number of write requests accepted
system.mem_ctrls.readBursts                   8404389                       # Number of DRAM read bursts, including those serviced by the write queue
system.mem_ctrls.writeBursts                  8347047                       # Number of DRAM write bursts, including those merged in the write queue
system.mem_ctrls.bytesReadDRAM              537854272                       # Total number of bytes read from DRAM
system.mem_ctrls.bytesReadWrQ                   26624                       # Total number of bytes read from write queue
system.mem_ctrls.bytesWritten               534207424                       # Total number of bytes written to DRAM
system.mem_ctrls.bytesReadSys               537880896                       # Total read bytes from the system interface side
system.mem_ctrls.bytesWrittenSys            534211008                       # Total written bytes from the system interface side
system.mem_ctrls.servicedByWrQ                    416                       # Number of DRAM read bursts serviced by the write queue
system.mem_ctrls.mergedWrBursts                    34                       # Number of DRAM write bursts merged with an existing one
system.mem_ctrls.neitherReadNorWriteReqs        40455                       # Number of requests that are neither read nor write
system.mem_ctrls.perBankRdBursts::0            523574                       # Per bank write bursts
system.mem_ctrls.perBankRdBursts::1            523356                       # Per bank write bursts
system.mem_ctrls.perBankRdBursts::2            523689                       # Per bank write bursts
system.mem_ctrls.perBankRdBursts::3            525218                       # Per bank write bursts
system.mem_ctrls.perBankRdBursts::4            535763                       # Per bank write bursts
system.mem_ctrls.perBankRdBursts::5            524252                       # Per bank write bursts
system.mem_ctrls.perBankRdBursts::6            524370                       # Per bank write bursts
system.mem_ctrls.perBankRdBursts::7            524436                       # Per bank write bursts
system.mem_ctrls.perBankRdBursts::8            523315                       # Per bank write bursts
system.mem_ctrls.perBankRdBursts::9            524040                       # Per bank write bursts
system.mem_ctrls.perBankRdBursts::10           528738                       # Per bank write bursts
system.mem_ctrls.perBankRdBursts::11           525876                       # Per bank write bursts
system.mem_ctrls.perBankRdBursts::12           524519                       # Per bank write bursts
system.mem_ctrls.perBankRdBursts::13           524382                       # Per bank write bursts
system.mem_ctrls.perBankRdBursts::14           524111                       # Per bank write bursts
system.mem_ctrls.perBankRdBursts::15           524334                       # Per bank write bursts
system.mem_ctrls.perBankWrBursts::0            521543                       # Per bank write bursts
system.mem_ctrls.perBankWrBursts::1            521352                       # Per bank write bursts
system.mem_ctrls.perBankWrBursts::2            521589                       # Per bank write bursts
system.mem_ctrls.perBankWrBursts::3            522136                       # Per bank write bursts
system.mem_ctrls.perBankWrBursts::4            521835                       # Per bank write bursts
system.mem_ctrls.perBankWrBursts::5            521865                       # Per bank write bursts
system.mem_ctrls.perBankWrBursts::6            521521                       # Per bank write bursts
system.mem_ctrls.perBankWrBursts::7            521684                       # Per bank write bursts
system.mem_ctrls.perBankWrBursts::8            521313                       # Per bank write bursts
system.mem_ctrls.perBankWrBursts::9            521507                       # Per bank write bursts
system.mem_ctrls.perBankWrBursts::10           521659                       # Per bank write bursts
system.mem_ctrls.perBankWrBursts::11           521805                       # Per bank write bursts
system.mem_ctrls.perBankWrBursts::12           521848                       # Per bank write bursts
system.mem_ctrls.perBankWrBursts::13           521921                       # Per bank write bursts
system.mem_ctrls.perBankWrBursts::14           521729                       # Per bank write bursts
system.mem_ctrls.perBankWrBursts::15           521684                       # Per bank write bursts
system.mem_ctrls.numRdRetry                         0                       # Number of times read queue was full causing retry
system.mem_ctrls.numWrRetry                         0                       # Number of times write queue was full causing retry
system.mem_ctrls.totGap                  1669563676500                       # Total gap between requests
system.mem_ctrls.readPktSize::0                     0                       # Read request sizes (log2)
system.mem_ctrls.readPktSize::1                     0                       # Read request sizes (log2)
system.mem_ctrls.readPktSize::2                     0                       # Read request sizes (log2)
system.mem_ctrls.readPktSize::3                     0                       # Read request sizes (log2)
system.mem_ctrls.readPktSize::4                     0                       # Read request sizes (log2)
system.mem_ctrls.readPktSize::5                     0                       # Read request sizes (log2)
system.mem_ctrls.readPktSize::6               8404389                       # Read request sizes (log2)
system.mem_ctrls.writePktSize::0                    0                       # Write request sizes (log2)
system.mem_ctrls.writePktSize::1                    0                       # Write request sizes (log2)
system.mem_ctrls.writePktSize::2                    0                       # Write request sizes (log2)
system.mem_ctrls.writePktSize::3                    0                       # Write request sizes (log2)
system.mem_ctrls.writePktSize::4                    0                       # Write request sizes (log2)
system.mem_ctrls.writePktSize::5                    0                       # Write request sizes (log2)
system.mem_ctrls.writePktSize::6              8347047                       # Write request sizes (log2)
system.mem_ctrls.rdQLenPdf::0                 8403972                       # What read queue length does an incoming req see
system.mem_ctrls.rdQLenPdf::1                       1                       # What read queue length does an incoming req see
system.mem_ctrls.rdQLenPdf::2                       0                       # What read queue length does an incoming req see
system.mem_ctrls.rdQLenPdf::3                       0                       # What read queue length does an incoming req see
system.mem_ctrls.rdQLenPdf::4                       0                       # What read queue length does an incoming req see
system.mem_ctrls.rdQLenPdf::5                       0                       # What read queue length does an incoming req see
system.mem_ctrls.rdQLenPdf::6                       0                       # What read queue length does an incoming req see
system.mem_ctrls.rdQLenPdf::7                       0                       # What read queue length does an incoming req see
system.mem_ctrls.rdQLenPdf::8                       0                       # What read queue length does an incoming req see
system.mem_ctrls.rdQLenPdf::9                       0                       # What read queue length does an incoming req see
system.mem_ctrls.rdQLenPdf::10                      0                       # What read queue length does an incoming req see
system.mem_ctrls.rdQLenPdf::11                      0                       # What read queue length does an incoming req see
system.mem_ctrls.rdQLenPdf::12                      0                       # What read queue length does an incoming req see
system.mem_ctrls.rdQLenPdf::13                      0                       # What read queue length does an incoming req see
system.mem_ctrls.rdQLenPdf::14                      0                       # What read queue length does an incoming req see
system.mem_ctrls.rdQLenPdf::15                      0                       # What read queue length does an incoming req see
system.mem_ctrls.rdQLenPdf::16                      0                       # What read queue length does an incoming req see
system.mem_ctrls.rdQLenPdf::17                      0                       # What read queue length does an incoming req see
system.mem_ctrls.rdQLenPdf::18                      0                       # What read queue length does an incoming req see
system.mem_ctrls.rdQLenPdf::19                      0                       # What read queue length does an incoming req see
system.mem_ctrls.rdQLenPdf::20                      0                       # What read queue length does an incoming req see
system.mem_ctrls.rdQLenPdf::21                      0                       # What read queue length does an incoming req see
system.mem_ctrls.rdQLenPdf::22                      0                       # What read queue length does an incoming req see
system.mem_ctrls.rdQLenPdf::23                      0                       # What read queue length does an incoming req see
system.mem_ctrls.rdQLenPdf::24                      0                       # What read queue length does an incoming req see
system.mem_ctrls.rdQLenPdf::25                      0                       # What read queue length does an incoming req see
system.mem_ctrls.rdQLenPdf::26                      0                       # What read queue length does an incoming req see
system.mem_ctrls.rdQLenPdf::27                      0                       # What read queue length does an incoming req see
system.mem_ctrls.rdQLenPdf::28                      0                       # What read queue length does an incoming req see
system.mem_ctrls.rdQLenPdf::29                      0                       # What read queue length does an incoming req see
system.mem_ctrls.rdQLenPdf::30                      0                       # What read queue length does an incoming req see
system.mem_ctrls.rdQLenPdf::31                      0                       # What read queue length does an incoming req see
system.mem_ctrls.wrQLenPdf::0                       1                       # What write queue length does an incoming req see
system.mem_ctrls.wrQLenPdf::1                       1                       # What write queue length does an incoming req see
system.mem_ctrls.wrQLenPdf::2                       1                       # What write queue length does an incoming req see
system.mem_ctrls.wrQLenPdf::3                       1                       # What write queue length does an incoming req see
system.mem_ctrls.wrQLenPdf::4                       1                       # What write queue length does an incoming req see
system.mem_ctrls.wrQLenPdf::5                       1                       # What write queue length does an incoming req see
system.mem_ctrls.wrQLenPdf::6                       1                       # What write queue length does an incoming req see
system.mem_ctrls.wrQLenPdf::7                       1                       # What write queue length does an incoming req see
system.mem_ctrls.wrQLenPdf::8                       1                       # What write queue length does an incoming req see
system.mem_ctrls.wrQLenPdf::9                       1                       # What write queue length does an incoming req see
system.mem_ctrls.wrQLenPdf::10                      1                       # What write queue length does an incoming req see
system.mem_ctrls.wrQLenPdf::11                      1                       # What write queue length does an incoming req see
system.mem_ctrls.wrQLenPdf::12                      1                       # What write queue length does an incoming req see
system.mem_ctrls.wrQLenPdf::13                      1                       # What write queue length does an incoming req see
system.mem_ctrls.wrQLenPdf::14                      1                       # What write queue length does an incoming req see
system.mem_ctrls.wrQLenPdf::15                   6709                       # What write queue length does an incoming req see
system.mem_ctrls.wrQLenPdf::16                   6721                       # What write queue length does an incoming req see
system.mem_ctrls.wrQLenPdf::17                 518594                       # What write queue length does an incoming req see
system.mem_ctrls.wrQLenPdf::18                 520758                       # What write queue length does an incoming req see
system.mem_ctrls.wrQLenPdf::19                 520755                       # What write queue length does an incoming req see
system.mem_ctrls.wrQLenPdf::20                 520758                       # What write queue length does an incoming req see
system.mem_ctrls.wrQLenPdf::21                 520754                       # What write queue length does an incoming req see
system.mem_ctrls.wrQLenPdf::22                 520754                       # What write queue length does an incoming req see
system.mem_ctrls.wrQLenPdf::23                 520753                       # What write queue length does an incoming req see
system.mem_ctrls.wrQLenPdf::24                 520762                       # What write queue length does an incoming req see
system.mem_ctrls.wrQLenPdf::25                 524081                       # What write queue length does an incoming req see
system.mem_ctrls.wrQLenPdf::26                 520753                       # What write queue length does an incoming req see
system.mem_ctrls.wrQLenPdf::27                 520803                       # What write queue length does an incoming req see
system.mem_ctrls.wrQLenPdf::28                 521037                       # What write queue length does an incoming req see
system.mem_ctrls.wrQLenPdf::29                 520750                       # What write queue length does an incoming req see
system.mem_ctrls.wrQLenPdf::30                 520756                       # What write queue length does an incoming req see
system.mem_ctrls.wrQLenPdf::31                 520749                       # What write queue length does an incoming req see
system.mem_ctrls.wrQLenPdf::32                 520749                       # What write queue length does an incoming req see
system.mem_ctrls.wrQLenPdf::33                      2                       # What write queue length does an incoming req see
system.mem_ctrls.wrQLenPdf::34                      0                       # What write queue length does an incoming req see
system.mem_ctrls.wrQLenPdf::35                      0                       # What write queue length does an incoming req see
system.mem_ctrls.wrQLenPdf::36                      0                       # What write queue length does an incoming req see
system.mem_ctrls.wrQLenPdf::37                      0                       # What write queue length does an incoming req see
system.mem_ctrls.wrQLenPdf::38                      0                       # What write queue length does an incoming req see
system.mem_ctrls.wrQLenPdf::39                      0                       # What write queue length does an incoming req see
system.mem_ctrls.wrQLenPdf::40                      0                       # What write queue length does an incoming req see
system.mem_ctrls.wrQLenPdf::41                      0                       # What write queue length does an incoming req see
system.mem_ctrls.wrQLenPdf::42                      0                       # What write queue length does an incoming req see
system.mem_ctrls.wrQLenPdf::43                      0                       # What write queue length does an incoming req see
system.mem_ctrls.wrQLenPdf::44                      0                       # What write queue length does an incoming req see
system.mem_ctrls.wrQLenPdf::45                      0                       # What write queue length does an incoming req see
system.mem_ctrls.wrQLenPdf::46                      0                       # What write queue length does an incoming req see
system.mem_ctrls.wrQLenPdf::47                      0                       # What write queue length does an incoming req see
system.mem_ctrls.wrQLenPdf::48                      0                       # What write queue length does an incoming req see
system.mem_ctrls.wrQLenPdf::49                      0                       # What write queue length does an incoming req see
system.mem_ctrls.wrQLenPdf::50                      0                       # What write queue length does an incoming req see
system.mem_ctrls.wrQLenPdf::51                      0                       # What write queue length does an incoming req see
system.mem_ctrls.wrQLenPdf::52                      0                       # What write queue length does an incoming req see
system.mem_ctrls.wrQLenPdf::53                      0                       # What write queue length does an incoming req see
system.mem_ctrls.wrQLenPdf::54                      0                       # What write queue length does an incoming req see
system.mem_ctrls.wrQLenPdf::55                      0                       # What write queue length does an incoming req see
system.mem_ctrls.wrQLenPdf::56                      0                       # What write queue length does an incoming req see
system.mem_ctrls.wrQLenPdf::57                      0                       # What write queue length does an incoming req see
system.mem_ctrls.wrQLenPdf::58                      0                       # What write queue length does an incoming req see
system.mem_ctrls.wrQLenPdf::59                      0                       # What write queue length does an incoming req see
system.mem_ctrls.wrQLenPdf::60                      0                       # What write queue length does an incoming req see
system.mem_ctrls.wrQLenPdf::61                      0                       # What write queue length does an incoming req see
system.mem_ctrls.wrQLenPdf::62                      0                       # What write queue length does an incoming req see
system.mem_ctrls.wrQLenPdf::63                      0                       # What write queue length does an incoming req see
system.mem_ctrls.bytesPerActivate::samples      1429434                       # Bytes accessed per row activation
system.mem_ctrls.bytesPerActivate::mean    749.990343                       # Bytes accessed per row activation
system.mem_ctrls.bytesPerActivate::gmean   547.955165                       # Bytes accessed per row activation
system.mem_ctrls.bytesPerActivate::stdev   379.285491                       # Bytes accessed per row activation
system.mem_ctrls.bytesPerActivate::0-127       208643     14.60%     14.60% # Bytes accessed per row activation
system.mem_ctrls.bytesPerActivate::128-255        59144      4.14%     18.73% # Bytes accessed per row activation
system.mem_ctrls.bytesPerActivate::256-383        62378      4.36%     23.10% # Bytes accessed per row activation
system.mem_ctrls.bytesPerActivate::384-511        55974      3.92%     27.01% # Bytes accessed per row activation
system.mem_ctrls.bytesPerActivate::512-639        44113      3.09%     30.10% # Bytes accessed per row activation
system.mem_ctrls.bytesPerActivate::640-767        69274      4.85%     34.95% # Bytes accessed per row activation
system.mem_ctrls.bytesPerActivate::768-895        42995      3.01%     37.95% # Bytes accessed per row activation
system.mem_ctrls.bytesPerActivate::896-1023        55404      3.88%     41.83% # Bytes accessed per row activation
system.mem_ctrls.bytesPerActivate::1024-1151       831509     58.17%    100.00% # Bytes accessed per row activation
system.mem_ctrls.bytesPerActivate::total      1429434                       # Bytes accessed per row activation
system.mem_ctrls.rdPerTurnAround::samples       520749                       # Reads before turning the bus around for writes
system.mem_ctrls.rdPerTurnAround::mean      16.138226                       # Reads before turning the bus around for writes
system.mem_ctrls.rdPerTurnAround::gmean     16.079320                       # Reads before turning the bus around for writes
system.mem_ctrls.rdPerTurnAround::stdev     10.572913                       # Reads before turning the bus around for writes
system.mem_ctrls.rdPerTurnAround::0-255        520742    100.00%    100.00% # Reads before turning the bus around for writes
system.mem_ctrls.rdPerTurnAround::256-511            1      0.00%    100.00% # Reads before turning the bus around for writes
system.mem_ctrls.rdPerTurnAround::768-1023            1      0.00%    100.00% # Reads before turning the bus around for writes
system.mem_ctrls.rdPerTurnAround::1024-1279            1      0.00%    100.00% # Reads before turning the bus around for writes
system.mem_ctrls.rdPerTurnAround::1792-2047            1      0.00%    100.00% # Reads before turning the bus around for writes
system.mem_ctrls.rdPerTurnAround::2304-2559            1      0.00%    100.00% # Reads before turning the bus around for writes
system.mem_ctrls.rdPerTurnAround::3584-3839            1      0.00%    100.00% # Reads before turning the bus around for writes
system.mem_ctrls.rdPerTurnAround::5376-5631            1      0.00%    100.00% # Reads before turning the bus around for writes
system.mem_ctrls.rdPerTurnAround::total        520749                       # Reads before turning the bus around for writes
system.mem_ctrls.wrPerTurnAround::samples       520749                       # Writes before turning the bus around for reads
system.mem_ctrls.wrPerTurnAround::mean      16.028818                       # Writes before turning the bus around for reads
system.mem_ctrls.wrPerTurnAround::gmean     16.026944                       # Writes before turning the bus around for reads
system.mem_ctrls.wrPerTurnAround::stdev      0.256617                       # Writes before turning the bus around for reads
system.mem_ctrls.wrPerTurnAround::16           514026     98.71%     98.71% # Writes before turning the bus around for reads
system.mem_ctrls.wrPerTurnAround::17               12      0.00%     98.71% # Writes before turning the bus around for reads
system.mem_ctrls.wrPerTurnAround::18             5140      0.99%     99.70% # Writes before turning the bus around for reads
system.mem_ctrls.wrPerTurnAround::19             1569      0.30%    100.00% # Writes before turning the bus around for reads
system.mem_ctrls.wrPerTurnAround::20                2      0.00%    100.00% # Writes before turning the bus around for reads
system.mem_ctrls.wrPerTurnAround::total        520749                       # Writes before turning the bus around for reads
system.mem_ctrls.totQLat                  88665993000                       # Total ticks spent queuing
system.mem_ctrls.totMemAccLat            246240486750                       # Total ticks spent from burst creation until serviced by the DRAM
system.mem_ctrls.totBusLat                42019865000                       # Total ticks spent in databus transfers
system.mem_ctrls.avgQLat                     10550.49                       # Average queueing delay per DRAM burst
system.mem_ctrls.avgBusLat                    5000.00                       # Average bus latency per DRAM burst
system.mem_ctrls.avgMemAccLat                29300.49                       # Average memory access latency per DRAM burst
system.mem_ctrls.avgRdBW                       322.15                       # Average DRAM read bandwidth in MiByte/s
system.mem_ctrls.avgWrBW                       319.97                       # Average achieved write bandwidth in MiByte/s
system.mem_ctrls.avgRdBWSys                    322.17                       # Average system read bandwidth in MiByte/s
system.mem_ctrls.avgWrBWSys                    319.97                       # Average system write bandwidth in MiByte/s
system.mem_ctrls.peakBW                      12800.00                       # Theoretical peak bandwidth in MiByte/s
system.mem_ctrls.busUtil                         5.02                       # Data bus utilization in percentage
system.mem_ctrls.busUtilRead                     2.52                       # Data bus utilization in percentage for reads
system.mem_ctrls.busUtilWrite                    2.50                       # Data bus utilization in percentage for writes
system.mem_ctrls.avgRdQLen                       1.00                       # Average read queue length when enqueuing
system.mem_ctrls.avgWrQLen                      25.21                       # Average write queue length when enqueuing
system.mem_ctrls.readRowHits                  7623307                       # Number of row buffer hits during reads
system.mem_ctrls.writeRowHits                 7698223                       # Number of row buffer hits during writes
system.mem_ctrls.readRowHitRate                 90.71                       # Row buffer hit rate for reads
system.mem_ctrls.writeRowHitRate                92.23                       # Row buffer hit rate for writes
system.mem_ctrls.avgGap                      99666.90                       # Average gap between requests
system.mem_ctrls.pageHitRate                    91.47                       # Row buffer hit rate, read and write combined
system.mem_ctrls_0.actEnergy               5414283000                       # Energy for activate commands per rank (pJ)
system.mem_ctrls_0.preEnergy               2954221875                       # Energy for precharge commands per rank (pJ)
system.mem_ctrls_0.readEnergy             32796332400                       # Energy for read commands per rank (pJ)
system.mem_ctrls_0.writeEnergy            27044442000                       # Energy for write commands per rank (pJ)
system.mem_ctrls_0.refreshEnergy         109048486560                       # Energy for refresh commands per rank (pJ)
system.mem_ctrls_0.actBackEnergy         418186206270                       # Energy for active background per rank (pJ)
system.mem_ctrls_0.preBackEnergy         634914807750                       # Energy for precharge background per rank (pJ)
system.mem_ctrls_0.totalEnergy           1230358779855                       # Total energy per rank (pJ)
system.mem_ctrls_0.averagePower            736.929464                       # Core power per rank (mW)
system.mem_ctrls_0.memoryStateTime::IDLE 1049256890500                       # Time in different power states
system.mem_ctrls_0.memoryStateTime::REF   55750760000                       # Time in different power states
system.mem_ctrls_0.memoryStateTime::PRE_PDN            0                       # Time in different power states
system.mem_ctrls_0.memoryStateTime::ACT  564567052000                       # Time in different power states
system.mem_ctrls_0.memoryStateTime::ACT_PDN            0                       # Time in different power states
system.mem_ctrls_1.actEnergy               5392238040                       # Energy for activate commands per rank (pJ)
system.mem_ctrls_1.preEnergy               2942193375                       # Energy for precharge commands per rank (pJ)
system.mem_ctrls_1.readEnergy             32754657000                       # Energy for read commands per rank (pJ)
system.mem_ctrls_1.writeEnergy            27044059680                       # Energy for write commands per rank (pJ)
system.mem_ctrls_1.refreshEnergy         109048486560                       # Energy for refresh commands per rank (pJ)
system.mem_ctrls_1.actBackEnergy         412244980560                       # Energy for active background per rank (pJ)
system.mem_ctrls_1.preBackEnergy         640126409250                       # Energy for precharge background per rank (pJ)
system.mem_ctrls_1.totalEnergy           1229553024465                       # Total energy per rank (pJ)
system.mem_ctrls_1.averagePower            736.446852                       # Core power per rank (mW)
system.mem_ctrls_1.memoryStateTime::IDLE 1057961209750                       # Time in different power states
system.mem_ctrls_1.memoryStateTime::REF   55750760000                       # Time in different power states
system.mem_ctrls_1.memoryStateTime::PRE_PDN            0                       # Time in different power states
system.mem_ctrls_1.memoryStateTime::ACT  555862732750                       # Time in different power states
system.mem_ctrls_1.memoryStateTime::ACT_PDN            0                       # Time in different power states
system.cpu_voltage_domain.voltage                   1                       # Voltage in Volts
system.cpu_clk_domain.clock                       500                       # Clock period in ticks
system.cpu.apic_clk_domain.clock                 8000                       # Clock period in ticks
system.cpu.workload.num_syscalls                  196                       # Number of system calls
system.cpu.numCycles                       3339153237                       # number of cpu cycles simulated
system.cpu.numWorkItemsStarted                      0                       # number of work items this cpu started
system.cpu.numWorkItemsCompleted                    0                       # number of work items this cpu completed
system.cpu.committedInsts                   500000000                       # Number of instructions committed
system.cpu.committedOps                     823366688                       # Number of ops (including micro ops) committed
system.cpu.num_int_alu_accesses             821415780                       # Number of integer alu accesses
system.cpu.num_fp_alu_accesses               66619254                       # Number of float alu accesses
system.cpu.num_func_calls                     5652773                       # number of times a function call or return occured
system.cpu.num_conditional_control_insts     57208851                       # number of instructions that are conditional controls
system.cpu.num_int_insts                    821415780                       # number of integer instructions
system.cpu.num_fp_insts                      66619254                       # number of float instructions
system.cpu.num_int_register_reads          1637209921                       # number of times the integer registers were read
system.cpu.num_int_register_writes          639871071                       # number of times the integer registers were written
system.cpu.num_fp_register_reads             66766844                       # number of times the floating registers were read
system.cpu.num_fp_register_writes              208042                       # number of times the floating registers were written
system.cpu.num_cc_register_reads            319714234                       # number of times the CC registers were read
system.cpu.num_cc_register_writes           287984020                       # number of times the CC registers were written
system.cpu.num_mem_refs                     271673944                       # number of memory refs
system.cpu.num_load_insts                   157213786                       # Number of load instructions
system.cpu.num_store_insts                  114460158                       # Number of store instructions
system.cpu.num_idle_cycles                          0                       # Number of idle cycles
system.cpu.num_busy_cycles                 3339153237                       # Number of busy cycles
system.cpu.not_idle_fraction                        1                       # Percentage of non-idle cycles
system.cpu.idle_fraction                            0                       # Percentage of idle cycles
system.cpu.Branches                          69678398                       # Number of branches fetched
system.cpu.op_class::No_OpClass                202233      0.02%      0.02% # Class of executed instruction
system.cpu.op_class::IntAlu                 550028809     66.80%     66.83% # Class of executed instruction
system.cpu.op_class::IntMult                   125092      0.02%     66.84% # Class of executed instruction
system.cpu.op_class::IntDiv                   1153479      0.14%     66.98% # Class of executed instruction
system.cpu.op_class::FloatAdd                  183131      0.02%     67.00% # Class of executed instruction
system.cpu.op_class::FloatCmp                       0      0.00%     67.00% # Class of executed instruction
system.cpu.op_class::FloatCvt                       0      0.00%     67.00% # Class of executed instruction
system.cpu.op_class::FloatMult                      0      0.00%     67.00% # Class of executed instruction
system.cpu.op_class::FloatDiv                       0      0.00%     67.00% # Class of executed instruction
system.cpu.op_class::FloatSqrt                      0      0.00%     67.00% # Class of executed instruction
system.cpu.op_class::SimdAdd                        0      0.00%     67.00% # Class of executed instruction
system.cpu.op_class::SimdAddAcc                     0      0.00%     67.00% # Class of executed instruction
system.cpu.op_class::SimdAlu                        0      0.00%     67.00% # Class of executed instruction
system.cpu.op_class::SimdCmp                        0      0.00%     67.00% # Class of executed instruction
system.cpu.op_class::SimdCvt                        0      0.00%     67.00% # Class of executed instruction
system.cpu.op_class::SimdMisc                       0      0.00%     67.00% # Class of executed instruction
system.cpu.op_class::SimdMult                       0      0.00%     67.00% # Class of executed instruction
system.cpu.op_class::SimdMultAcc                    0      0.00%     67.00% # Class of executed instruction
system.cpu.op_class::SimdShift                      0      0.00%     67.00% # Class of executed instruction
system.cpu.op_class::SimdShiftAcc                   0      0.00%     67.00% # Class of executed instruction
system.cpu.op_class::SimdSqrt                       0      0.00%     67.00% # Class of executed instruction
system.cpu.op_class::SimdFloatAdd                   0      0.00%     67.00% # Class of executed instruction
system.cpu.op_class::SimdFloatAlu                   0      0.00%     67.00% # Class of executed instruction
system.cpu.op_class::SimdFloatCmp                   0      0.00%     67.00% # Class of executed instruction
system.cpu.op_class::SimdFloatCvt                   0      0.00%     67.00% # Class of executed instruction
system.cpu.op_class::SimdFloatDiv                   0      0.00%     67.00% # Class of executed instruction
system.cpu.op_class::SimdFloatMisc                  0      0.00%     67.00% # Class of executed instruction
system.cpu.op_class::SimdFloatMult                  0      0.00%     67.00% # Class of executed instruction
system.cpu.op_class::SimdFloatMultAcc               0      0.00%     67.00% # Class of executed instruction
system.cpu.op_class::SimdFloatSqrt                  0      0.00%     67.00% # Class of executed instruction
system.cpu.op_class::MemRead                157213786     19.09%     86.10% # Class of executed instruction
system.cpu.op_class::MemWrite               114460158     13.90%    100.00% # Class of executed instruction
system.cpu.op_class::IprAccess                      0      0.00%    100.00% # Class of executed instruction
system.cpu.op_class::InstPrefetch                   0      0.00%    100.00% # Class of executed instruction
system.cpu.op_class::total                  823366688                       # Class of executed instruction
system.cpu.dcache.tags.replacements           8681684                       # number of replacements
system.cpu.dcache.tags.tagsinuse          2045.082897                       # Cycle average of tags in use
system.cpu.dcache.tags.total_refs           262990815                       # Total number of references to valid blocks.
system.cpu.dcache.tags.sampled_refs           8683732                       # Sample count of references to valid blocks.
system.cpu.dcache.tags.avg_refs             30.285460                       # Average number of references to valid blocks.
system.cpu.dcache.tags.warmup_cycle        7646707500                       # Cycle when the warmup percentage was hit.
system.cpu.dcache.tags.occ_blocks::cpu.data  2045.082897                       # Average occupied blocks per requestor
system.cpu.dcache.tags.occ_percent::cpu.data     0.998576                       # Average percentage of cache occupancy
system.cpu.dcache.tags.occ_percent::total     0.998576                       # Average percentage of cache occupancy
system.cpu.dcache.tags.occ_task_id_blocks::1024         2048                       # Occupied blocks per task id
system.cpu.dcache.tags.age_task_id_blocks_1024::0            1                       # Occupied blocks per task id
system.cpu.dcache.tags.age_task_id_blocks_1024::1           21                       # Occupied blocks per task id
system.cpu.dcache.tags.age_task_id_blocks_1024::2          127                       # Occupied blocks per task id
system.cpu.dcache.tags.age_task_id_blocks_1024::3          705                       # Occupied blocks per task id
system.cpu.dcache.tags.age_task_id_blocks_1024::4         1194                       # Occupied blocks per task id
system.cpu.dcache.tags.occ_task_id_percent::1024            1                       # Percentage of cache occupancy per task id
system.cpu.dcache.tags.tag_accesses         280358279                       # Number of tag accesses
system.cpu.dcache.tags.data_accesses        280358279                       # Number of data accesses
system.cpu.dcache.ReadReq_hits::cpu.data    156891869                       # number of ReadReq hits
system.cpu.dcache.ReadReq_hits::total       156891869                       # number of ReadReq hits
system.cpu.dcache.WriteReq_hits::cpu.data    106098946                       # number of WriteReq hits
system.cpu.dcache.WriteReq_hits::total      106098946                       # number of WriteReq hits
system.cpu.dcache.demand_hits::cpu.data     262990815                       # number of demand (read+write) hits
system.cpu.dcache.demand_hits::total        262990815                       # number of demand (read+write) hits
system.cpu.dcache.overall_hits::cpu.data    262990815                       # number of overall hits
system.cpu.dcache.overall_hits::total       262990815                       # number of overall hits
system.cpu.dcache.ReadReq_misses::cpu.data       322509                       # number of ReadReq misses
system.cpu.dcache.ReadReq_misses::total        322509                       # number of ReadReq misses
system.cpu.dcache.WriteReq_misses::cpu.data      8361223                       # number of WriteReq misses
system.cpu.dcache.WriteReq_misses::total      8361223                       # number of WriteReq misses
system.cpu.dcache.demand_misses::cpu.data      8683732                       # number of demand (read+write) misses
system.cpu.dcache.demand_misses::total        8683732                       # number of demand (read+write) misses
system.cpu.dcache.overall_misses::cpu.data      8683732                       # number of overall misses
system.cpu.dcache.overall_misses::total       8683732                       # number of overall misses
system.cpu.dcache.ReadReq_miss_latency::cpu.data  11847879000                       # number of ReadReq miss cycles
system.cpu.dcache.ReadReq_miss_latency::total  11847879000                       # number of ReadReq miss cycles
system.cpu.dcache.WriteReq_miss_latency::cpu.data 676696023500                       # number of WriteReq miss cycles
system.cpu.dcache.WriteReq_miss_latency::total 676696023500                       # number of WriteReq miss cycles
system.cpu.dcache.demand_miss_latency::cpu.data 688543902500                       # number of demand (read+write) miss cycles
system.cpu.dcache.demand_miss_latency::total 688543902500                       # number of demand (read+write) miss cycles
system.cpu.dcache.overall_miss_latency::cpu.data 688543902500                       # number of overall miss cycles
system.cpu.dcache.overall_miss_latency::total 688543902500                       # number of overall miss cycles
system.cpu.dcache.ReadReq_accesses::cpu.data    157214378                       # number of ReadReq accesses(hits+misses)
system.cpu.dcache.ReadReq_accesses::total    157214378                       # number of ReadReq accesses(hits+misses)
system.cpu.dcache.WriteReq_accesses::cpu.data    114460169                       # number of WriteReq accesses(hits+misses)
system.cpu.dcache.WriteReq_accesses::total    114460169                       # number of WriteReq accesses(hits+misses)
system.cpu.dcache.demand_accesses::cpu.data    271674547                       # number of demand (read+write) accesses
system.cpu.dcache.demand_accesses::total    271674547                       # number of demand (read+write) accesses
system.cpu.dcache.overall_accesses::cpu.data    271674547                       # number of overall (read+write) accesses
system.cpu.dcache.overall_accesses::total    271674547                       # number of overall (read+write) accesses
system.cpu.dcache.ReadReq_miss_rate::cpu.data     0.002051                       # miss rate for ReadReq accesses
system.cpu.dcache.ReadReq_miss_rate::total     0.002051                       # miss rate for ReadReq accesses
system.cpu.dcache.WriteReq_miss_rate::cpu.data     0.073049                       # miss rate for WriteReq accesses
system.cpu.dcache.WriteReq_miss_rate::total     0.073049                       # miss rate for WriteReq accesses
system.cpu.dcache.demand_miss_rate::cpu.data     0.031964                       # miss rate for demand accesses
system.cpu.dcache.demand_miss_rate::total     0.031964                       # miss rate for demand accesses
system.cpu.dcache.overall_miss_rate::cpu.data     0.031964                       # miss rate for overall accesses
system.cpu.dcache.overall_miss_rate::total     0.031964                       # miss rate for overall accesses
system.cpu.dcache.ReadReq_avg_miss_latency::cpu.data 36736.584095                       # average ReadReq miss latency
system.cpu.dcache.ReadReq_avg_miss_latency::total 36736.584095                       # average ReadReq miss latency
system.cpu.dcache.WriteReq_avg_miss_latency::cpu.data 80932.660629                       # average WriteReq miss latency
system.cpu.dcache.WriteReq_avg_miss_latency::total 80932.660629                       # average WriteReq miss latency
system.cpu.dcache.demand_avg_miss_latency::cpu.data 79291.242809                       # average overall miss latency
system.cpu.dcache.demand_avg_miss_latency::total 79291.242809                       # average overall miss latency
system.cpu.dcache.overall_avg_miss_latency::cpu.data 79291.242809                       # average overall miss latency
system.cpu.dcache.overall_avg_miss_latency::total 79291.242809                       # average overall miss latency
system.cpu.dcache.blocked_cycles::no_mshrs            0                       # number of cycles access was blocked
system.cpu.dcache.blocked_cycles::no_targets            0                       # number of cycles access was blocked
system.cpu.dcache.blocked::no_mshrs                 0                       # number of cycles access was blocked
system.cpu.dcache.blocked::no_targets               0                       # number of cycles access was blocked
system.cpu.dcache.avg_blocked_cycles::no_mshrs          nan                       # average number of cycles each access was blocked
system.cpu.dcache.avg_blocked_cycles::no_targets          nan                       # average number of cycles each access was blocked
system.cpu.dcache.fast_writes                       0                       # number of fast writes performed
system.cpu.dcache.cache_copies                      0                       # number of cache copies performed
system.cpu.dcache.writebacks::writebacks      8513407                       # number of writebacks
system.cpu.dcache.writebacks::total           8513407                       # number of writebacks
system.cpu.dcache.ReadReq_mshr_misses::cpu.data       322509                       # number of ReadReq MSHR misses
system.cpu.dcache.ReadReq_mshr_misses::total       322509                       # number of ReadReq MSHR misses
system.cpu.dcache.WriteReq_mshr_misses::cpu.data      8361223                       # number of WriteReq MSHR misses
system.cpu.dcache.WriteReq_mshr_misses::total      8361223                       # number of WriteReq MSHR misses
system.cpu.dcache.demand_mshr_misses::cpu.data      8683732                       # number of demand (read+write) MSHR misses
system.cpu.dcache.demand_mshr_misses::total      8683732                       # number of demand (read+write) MSHR misses
system.cpu.dcache.overall_mshr_misses::cpu.data      8683732                       # number of overall MSHR misses
system.cpu.dcache.overall_mshr_misses::total      8683732                       # number of overall MSHR misses
system.cpu.dcache.ReadReq_mshr_miss_latency::cpu.data  11525370000                       # number of ReadReq MSHR miss cycles
system.cpu.dcache.ReadReq_mshr_miss_latency::total  11525370000                       # number of ReadReq MSHR miss cycles
system.cpu.dcache.WriteReq_mshr_miss_latency::cpu.data 668334800500                       # number of WriteReq MSHR miss cycles
system.cpu.dcache.WriteReq_mshr_miss_latency::total 668334800500                       # number of WriteReq MSHR miss cycles
system.cpu.dcache.demand_mshr_miss_latency::cpu.data 679860170500                       # number of demand (read+write) MSHR miss cycles
system.cpu.dcache.demand_mshr_miss_latency::total 679860170500                       # number of demand (read+write) MSHR miss cycles
system.cpu.dcache.overall_mshr_miss_latency::cpu.data 679860170500                       # number of overall MSHR miss cycles
system.cpu.dcache.overall_mshr_miss_latency::total 679860170500                       # number of overall MSHR miss cycles
system.cpu.dcache.ReadReq_mshr_miss_rate::cpu.data     0.002051                       # mshr miss rate for ReadReq accesses
system.cpu.dcache.ReadReq_mshr_miss_rate::total     0.002051                       # mshr miss rate for ReadReq accesses
system.cpu.dcache.WriteReq_mshr_miss_rate::cpu.data     0.073049                       # mshr miss rate for WriteReq accesses
system.cpu.dcache.WriteReq_mshr_miss_rate::total     0.073049                       # mshr miss rate for WriteReq accesses
system.cpu.dcache.demand_mshr_miss_rate::cpu.data     0.031964                       # mshr miss rate for demand accesses
system.cpu.dcache.demand_mshr_miss_rate::total     0.031964                       # mshr miss rate for demand accesses
system.cpu.dcache.overall_mshr_miss_rate::cpu.data     0.031964                       # mshr miss rate for overall accesses
system.cpu.dcache.overall_mshr_miss_rate::total     0.031964                       # mshr miss rate for overall accesses
system.cpu.dcache.ReadReq_avg_mshr_miss_latency::cpu.data 35736.584095                       # average ReadReq mshr miss latency
system.cpu.dcache.ReadReq_avg_mshr_miss_latency::total 35736.584095                       # average ReadReq mshr miss latency
system.cpu.dcache.WriteReq_avg_mshr_miss_latency::cpu.data 79932.660629                       # average WriteReq mshr miss latency
system.cpu.dcache.WriteReq_avg_mshr_miss_latency::total 79932.660629                       # average WriteReq mshr miss latency
system.cpu.dcache.demand_avg_mshr_miss_latency::cpu.data 78291.242809                       # average overall mshr miss latency
system.cpu.dcache.demand_avg_mshr_miss_latency::total 78291.242809                       # average overall mshr miss latency
system.cpu.dcache.overall_avg_mshr_miss_latency::cpu.data 78291.242809                       # average overall mshr miss latency
system.cpu.dcache.overall_avg_mshr_miss_latency::total 78291.242809                       # average overall mshr miss latency
system.cpu.dcache.no_allocate_misses                0                       # Number of misses that were no-allocate
system.cpu.dtb_walker_cache.tags.replacements            0                       # number of replacements
system.cpu.dtb_walker_cache.tags.tagsinuse            0                       # Cycle average of tags in use
system.cpu.dtb_walker_cache.tags.total_refs            0                       # Total number of references to valid blocks.
system.cpu.dtb_walker_cache.tags.sampled_refs            0                       # Sample count of references to valid blocks.
system.cpu.dtb_walker_cache.tags.avg_refs          nan                       # Average number of references to valid blocks.
system.cpu.dtb_walker_cache.tags.warmup_cycle            0                       # Cycle when the warmup percentage was hit.
system.cpu.dtb_walker_cache.tags.tag_accesses            0                       # Number of tag accesses
system.cpu.dtb_walker_cache.tags.data_accesses            0                       # Number of data accesses
system.cpu.dtb_walker_cache.blocked_cycles::no_mshrs            0                       # number of cycles access was blocked
system.cpu.dtb_walker_cache.blocked_cycles::no_targets            0                       # number of cycles access was blocked
system.cpu.dtb_walker_cache.blocked::no_mshrs            0                       # number of cycles access was blocked
system.cpu.dtb_walker_cache.blocked::no_targets            0                       # number of cycles access was blocked
system.cpu.dtb_walker_cache.avg_blocked_cycles::no_mshrs          nan                       # average number of cycles each access was blocked
system.cpu.dtb_walker_cache.avg_blocked_cycles::no_targets          nan                       # average number of cycles each access was blocked
system.cpu.dtb_walker_cache.fast_writes             0                       # number of fast writes performed
system.cpu.dtb_walker_cache.cache_copies            0                       # number of cache copies performed
system.cpu.dtb_walker_cache.no_allocate_misses            0                       # Number of misses that were no-allocate
system.cpu.icache.tags.replacements           3503776                       # number of replacements
system.cpu.icache.tags.tagsinuse           438.160048                       # Cycle average of tags in use
system.cpu.icache.tags.total_refs           671849375                       # Total number of references to valid blocks.
system.cpu.icache.tags.sampled_refs           3504287                       # Sample count of references to valid blocks.
system.cpu.icache.tags.avg_refs            191.722132                       # Average number of references to valid blocks.
system.cpu.icache.tags.warmup_cycle                 0                       # Cycle when the warmup percentage was hit.
system.cpu.icache.tags.occ_blocks::cpu.inst   438.160048                       # Average occupied blocks per requestor
system.cpu.icache.tags.occ_percent::cpu.inst     0.855781                       # Average percentage of cache occupancy
system.cpu.icache.tags.occ_percent::total     0.855781                       # Average percentage of cache occupancy
system.cpu.icache.tags.occ_task_id_blocks::1024          511                       # Occupied blocks per task id
system.cpu.icache.tags.age_task_id_blocks_1024::0            9                       # Occupied blocks per task id
system.cpu.icache.tags.age_task_id_blocks_1024::1          107                       # Occupied blocks per task id
system.cpu.icache.tags.age_task_id_blocks_1024::2           29                       # Occupied blocks per task id
system.cpu.icache.tags.age_task_id_blocks_1024::3           12                       # Occupied blocks per task id
system.cpu.icache.tags.age_task_id_blocks_1024::4          354                       # Occupied blocks per task id
system.cpu.icache.tags.occ_task_id_percent::1024     0.998047                       # Percentage of cache occupancy per task id
system.cpu.icache.tags.tag_accesses         678857949                       # Number of tag accesses
system.cpu.icache.tags.data_accesses        678857949                       # Number of data accesses
system.cpu.icache.ReadReq_hits::cpu.inst    671849375                       # number of ReadReq hits
system.cpu.icache.ReadReq_hits::total       671849375                       # number of ReadReq hits
system.cpu.icache.demand_hits::cpu.inst     671849375                       # number of demand (read+write) hits
system.cpu.icache.demand_hits::total        671849375                       # number of demand (read+write) hits
system.cpu.icache.overall_hits::cpu.inst    671849375                       # number of overall hits
system.cpu.icache.overall_hits::total       671849375                       # number of overall hits
system.cpu.icache.ReadReq_misses::cpu.inst      3504287                       # number of ReadReq misses
system.cpu.icache.ReadReq_misses::total       3504287                       # number of ReadReq misses
system.cpu.icache.demand_misses::cpu.inst      3504287                       # number of demand (read+write) misses
system.cpu.icache.demand_misses::total        3504287                       # number of demand (read+write) misses
system.cpu.icache.overall_misses::cpu.inst      3504287                       # number of overall misses
system.cpu.icache.overall_misses::total       3504287                       # number of overall misses
system.cpu.icache.ReadReq_miss_latency::cpu.inst  46192938000                       # number of ReadReq miss cycles
system.cpu.icache.ReadReq_miss_latency::total  46192938000                       # number of ReadReq miss cycles
system.cpu.icache.demand_miss_latency::cpu.inst  46192938000                       # number of demand (read+write) miss cycles
system.cpu.icache.demand_miss_latency::total  46192938000                       # number of demand (read+write) miss cycles
system.cpu.icache.overall_miss_latency::cpu.inst  46192938000                       # number of overall miss cycles
system.cpu.icache.overall_miss_latency::total  46192938000                       # number of overall miss cycles
system.cpu.icache.ReadReq_accesses::cpu.inst    675353662                       # number of ReadReq accesses(hits+misses)
system.cpu.icache.ReadReq_accesses::total    675353662                       # number of ReadReq accesses(hits+misses)
system.cpu.icache.demand_accesses::cpu.inst    675353662                       # number of demand (read+write) accesses
system.cpu.icache.demand_accesses::total    675353662                       # number of demand (read+write) accesses
system.cpu.icache.overall_accesses::cpu.inst    675353662                       # number of overall (read+write) accesses
system.cpu.icache.overall_accesses::total    675353662                       # number of overall (read+write) accesses
system.cpu.icache.ReadReq_miss_rate::cpu.inst     0.005189                       # miss rate for ReadReq accesses
system.cpu.icache.ReadReq_miss_rate::total     0.005189                       # miss rate for ReadReq accesses
system.cpu.icache.demand_miss_rate::cpu.inst     0.005189                       # miss rate for demand accesses
system.cpu.icache.demand_miss_rate::total     0.005189                       # miss rate for demand accesses
system.cpu.icache.overall_miss_rate::cpu.inst     0.005189                       # miss rate for overall accesses
system.cpu.icache.overall_miss_rate::total     0.005189                       # miss rate for overall accesses
system.cpu.icache.ReadReq_avg_miss_latency::cpu.inst 13181.836419                       # average ReadReq miss latency
system.cpu.icache.ReadReq_avg_miss_latency::total 13181.836419                       # average ReadReq miss latency
system.cpu.icache.demand_avg_miss_latency::cpu.inst 13181.836419                       # average overall miss latency
system.cpu.icache.demand_avg_miss_latency::total 13181.836419                       # average overall miss latency
system.cpu.icache.overall_avg_miss_latency::cpu.inst 13181.836419                       # average overall miss latency
system.cpu.icache.overall_avg_miss_latency::total 13181.836419                       # average overall miss latency
system.cpu.icache.blocked_cycles::no_mshrs            0                       # number of cycles access was blocked
system.cpu.icache.blocked_cycles::no_targets            0                       # number of cycles access was blocked
system.cpu.icache.blocked::no_mshrs                 0                       # number of cycles access was blocked
system.cpu.icache.blocked::no_targets               0                       # number of cycles access was blocked
system.cpu.icache.avg_blocked_cycles::no_mshrs          nan                       # average number of cycles each access was blocked
system.cpu.icache.avg_blocked_cycles::no_targets          nan                       # average number of cycles each access was blocked
system.cpu.icache.fast_writes                       0                       # number of fast writes performed
system.cpu.icache.cache_copies                      0                       # number of cache copies performed
system.cpu.icache.writebacks::writebacks      3503776                       # number of writebacks
system.cpu.icache.writebacks::total           3503776                       # number of writebacks
system.cpu.icache.ReadReq_mshr_misses::cpu.inst      3504287                       # number of ReadReq MSHR misses
system.cpu.icache.ReadReq_mshr_misses::total      3504287                       # number of ReadReq MSHR misses
system.cpu.icache.demand_mshr_misses::cpu.inst      3504287                       # number of demand (read+write) MSHR misses
system.cpu.icache.demand_mshr_misses::total      3504287                       # number of demand (read+write) MSHR misses
system.cpu.icache.overall_mshr_misses::cpu.inst      3504287                       # number of overall MSHR misses
system.cpu.icache.overall_mshr_misses::total      3504287                       # number of overall MSHR misses
system.cpu.icache.ReadReq_mshr_miss_latency::cpu.inst  42688651000                       # number of ReadReq MSHR miss cycles
system.cpu.icache.ReadReq_mshr_miss_latency::total  42688651000                       # number of ReadReq MSHR miss cycles
system.cpu.icache.demand_mshr_miss_latency::cpu.inst  42688651000                       # number of demand (read+write) MSHR miss cycles
system.cpu.icache.demand_mshr_miss_latency::total  42688651000                       # number of demand (read+write) MSHR miss cycles
system.cpu.icache.overall_mshr_miss_latency::cpu.inst  42688651000                       # number of overall MSHR miss cycles
system.cpu.icache.overall_mshr_miss_latency::total  42688651000                       # number of overall MSHR miss cycles
system.cpu.icache.ReadReq_mshr_miss_rate::cpu.inst     0.005189                       # mshr miss rate for ReadReq accesses
system.cpu.icache.ReadReq_mshr_miss_rate::total     0.005189                       # mshr miss rate for ReadReq accesses
system.cpu.icache.demand_mshr_miss_rate::cpu.inst     0.005189                       # mshr miss rate for demand accesses
system.cpu.icache.demand_mshr_miss_rate::total     0.005189                       # mshr miss rate for demand accesses
system.cpu.icache.overall_mshr_miss_rate::cpu.inst     0.005189                       # mshr miss rate for overall accesses
system.cpu.icache.overall_mshr_miss_rate::total     0.005189                       # mshr miss rate for overall accesses
system.cpu.icache.ReadReq_avg_mshr_miss_latency::cpu.inst 12181.836419                       # average ReadReq mshr miss latency
system.cpu.icache.ReadReq_avg_mshr_miss_latency::total 12181.836419                       # average ReadReq mshr miss latency
system.cpu.icache.demand_avg_mshr_miss_latency::cpu.inst 12181.836419                       # average overall mshr miss latency
system.cpu.icache.demand_avg_mshr_miss_latency::total 12181.836419                       # average overall mshr miss latency
system.cpu.icache.overall_avg_mshr_miss_latency::cpu.inst 12181.836419                       # average overall mshr miss latency
system.cpu.icache.overall_avg_mshr_miss_latency::total 12181.836419                       # average overall mshr miss latency
system.cpu.icache.no_allocate_misses                0                       # Number of misses that were no-allocate
system.cpu.itb_walker_cache.tags.replacements            0                       # number of replacements
system.cpu.itb_walker_cache.tags.tagsinuse            0                       # Cycle average of tags in use
system.cpu.itb_walker_cache.tags.total_refs            0                       # Total number of references to valid blocks.
system.cpu.itb_walker_cache.tags.sampled_refs            0                       # Sample count of references to valid blocks.
system.cpu.itb_walker_cache.tags.avg_refs          nan                       # Average number of references to valid blocks.
system.cpu.itb_walker_cache.tags.warmup_cycle            0                       # Cycle when the warmup percentage was hit.
system.cpu.itb_walker_cache.tags.tag_accesses            0                       # Number of tag accesses
system.cpu.itb_walker_cache.tags.data_accesses            0                       # Number of data accesses
system.cpu.itb_walker_cache.blocked_cycles::no_mshrs            0                       # number of cycles access was blocked
system.cpu.itb_walker_cache.blocked_cycles::no_targets            0                       # number of cycles access was blocked
system.cpu.itb_walker_cache.blocked::no_mshrs            0                       # number of cycles access was blocked
system.cpu.itb_walker_cache.blocked::no_targets            0                       # number of cycles access was blocked
system.cpu.itb_walker_cache.avg_blocked_cycles::no_mshrs          nan                       # average number of cycles each access was blocked
system.cpu.itb_walker_cache.avg_blocked_cycles::no_targets          nan                       # average number of cycles each access was blocked
system.cpu.itb_walker_cache.fast_writes             0                       # number of fast writes performed
system.cpu.itb_walker_cache.cache_copies            0                       # number of cache copies performed
system.cpu.itb_walker_cache.no_allocate_misses            0                       # Number of misses that were no-allocate
system.l2.tags.replacements                   8436536                       # number of replacements
system.l2.tags.tagsinuse                 15147.182727                       # Cycle average of tags in use
system.l2.tags.total_refs                     7535572                       # Total number of references to valid blocks.
system.l2.tags.sampled_refs                   8452670                       # Sample count of references to valid blocks.
system.l2.tags.avg_refs                      0.891502                       # Average number of references to valid blocks.
system.l2.tags.warmup_cycle                         0                       # Cycle when the warmup percentage was hit.
system.l2.tags.occ_blocks::writebacks     9892.586275                       # Average occupied blocks per requestor
system.l2.tags.occ_blocks::cpu.inst        251.809668                       # Average occupied blocks per requestor
system.l2.tags.occ_blocks::cpu.data       5002.786784                       # Average occupied blocks per requestor
system.l2.tags.occ_percent::writebacks       0.603796                       # Average percentage of cache occupancy
system.l2.tags.occ_percent::cpu.inst         0.015369                       # Average percentage of cache occupancy
system.l2.tags.occ_percent::cpu.data         0.305346                       # Average percentage of cache occupancy
system.l2.tags.occ_percent::total            0.924511                       # Average percentage of cache occupancy
system.l2.tags.occ_task_id_blocks::1024         16134                       # Occupied blocks per task id
system.l2.tags.age_task_id_blocks_1024::1           13                       # Occupied blocks per task id
system.l2.tags.age_task_id_blocks_1024::2          113                       # Occupied blocks per task id
system.l2.tags.age_task_id_blocks_1024::3          925                       # Occupied blocks per task id
system.l2.tags.age_task_id_blocks_1024::4        15083                       # Occupied blocks per task id
system.l2.tags.occ_task_id_percent::1024     0.984741                       # Percentage of cache occupancy per task id
system.l2.tags.tag_accesses                  41187371                       # Number of tag accesses
system.l2.tags.data_accesses                 41187371                       # Number of data accesses
system.l2.WritebackDirty_hits::writebacks      8513407                       # number of WritebackDirty hits
system.l2.WritebackDirty_hits::total          8513407                       # number of WritebackDirty hits
system.l2.WritebackClean_hits::writebacks      3503776                       # number of WritebackClean hits
system.l2.WritebackClean_hits::total          3503776                       # number of WritebackClean hits
system.l2.ReadExReq_hits::cpu.data              64567                       # number of ReadExReq hits
system.l2.ReadExReq_hits::total                 64567                       # number of ReadExReq hits
system.l2.ReadCleanReq_hits::cpu.inst         3496431                       # number of ReadCleanReq hits
system.l2.ReadCleanReq_hits::total            3496431                       # number of ReadCleanReq hits
system.l2.ReadSharedReq_hits::cpu.data         222632                       # number of ReadSharedReq hits
system.l2.ReadSharedReq_hits::total            222632                       # number of ReadSharedReq hits
system.l2.demand_hits::cpu.inst               3496431                       # number of demand (read+write) hits
system.l2.demand_hits::cpu.data                287199                       # number of demand (read+write) hits
system.l2.demand_hits::total                  3783630                       # number of demand (read+write) hits
system.l2.overall_hits::cpu.inst              3496431                       # number of overall hits
system.l2.overall_hits::cpu.data               287199                       # number of overall hits
system.l2.overall_hits::total                 3783630                       # number of overall hits
system.l2.ReadExReq_misses::cpu.data          8296656                       # number of ReadExReq misses
system.l2.ReadExReq_misses::total             8296656                       # number of ReadExReq misses
system.l2.ReadCleanReq_misses::cpu.inst          7856                       # number of ReadCleanReq misses
system.l2.ReadCleanReq_misses::total             7856                       # number of ReadCleanReq misses
system.l2.ReadSharedReq_misses::cpu.data        99877                       # number of ReadSharedReq misses
system.l2.ReadSharedReq_misses::total           99877                       # number of ReadSharedReq misses
system.l2.demand_misses::cpu.inst                7856                       # number of demand (read+write) misses
system.l2.demand_misses::cpu.data             8396533                       # number of demand (read+write) misses
system.l2.demand_misses::total                8404389                       # number of demand (read+write) misses
system.l2.overall_misses::cpu.inst               7856                       # number of overall misses
system.l2.overall_misses::cpu.data            8396533                       # number of overall misses
system.l2.overall_misses::total               8404389                       # number of overall misses
system.l2.ReadExReq_miss_latency::cpu.data 655114870000                       # number of ReadExReq miss cycles
system.l2.ReadExReq_miss_latency::total  655114870000                       # number of ReadExReq miss cycles
system.l2.ReadCleanReq_miss_latency::cpu.inst    664018000                       # number of ReadCleanReq miss cycles
system.l2.ReadCleanReq_miss_latency::total    664018000                       # number of ReadCleanReq miss cycles
system.l2.ReadSharedReq_miss_latency::cpu.data   8701999000                       # number of ReadSharedReq miss cycles
system.l2.ReadSharedReq_miss_latency::total   8701999000                       # number of ReadSharedReq miss cycles
system.l2.demand_miss_latency::cpu.inst     664018000                       # number of demand (read+write) miss cycles
system.l2.demand_miss_latency::cpu.data  663816869000                       # number of demand (read+write) miss cycles
system.l2.demand_miss_latency::total     664480887000                       # number of demand (read+write) miss cycles
system.l2.overall_miss_latency::cpu.inst    664018000                       # number of overall miss cycles
system.l2.overall_miss_latency::cpu.data 663816869000                       # number of overall miss cycles
system.l2.overall_miss_latency::total    664480887000                       # number of overall miss cycles
system.l2.WritebackDirty_accesses::writebacks      8513407                       # number of WritebackDirty accesses(hits+misses)
system.l2.WritebackDirty_accesses::total      8513407                       # number of WritebackDirty accesses(hits+misses)
system.l2.WritebackClean_accesses::writebacks      3503776                       # number of WritebackClean accesses(hits+misses)
system.l2.WritebackClean_accesses::total      3503776                       # number of WritebackClean accesses(hits+misses)
system.l2.ReadExReq_accesses::cpu.data        8361223                       # number of ReadExReq accesses(hits+misses)
system.l2.ReadExReq_accesses::total           8361223                       # number of ReadExReq accesses(hits+misses)
system.l2.ReadCleanReq_accesses::cpu.inst      3504287                       # number of ReadCleanReq accesses(hits+misses)
system.l2.ReadCleanReq_accesses::total        3504287                       # number of ReadCleanReq accesses(hits+misses)
system.l2.ReadSharedReq_accesses::cpu.data       322509                       # number of ReadSharedReq accesses(hits+misses)
system.l2.ReadSharedReq_accesses::total        322509                       # number of ReadSharedReq accesses(hits+misses)
system.l2.demand_accesses::cpu.inst           3504287                       # number of demand (read+write) accesses
system.l2.demand_accesses::cpu.data           8683732                       # number of demand (read+write) accesses
system.l2.demand_accesses::total             12188019                       # number of demand (read+write) accesses
system.l2.overall_accesses::cpu.inst          3504287                       # number of overall (read+write) accesses
system.l2.overall_accesses::cpu.data          8683732                       # number of overall (read+write) accesses
system.l2.overall_accesses::total            12188019                       # number of overall (read+write) accesses
system.l2.ReadExReq_miss_rate::cpu.data      0.992278                       # miss rate for ReadExReq accesses
system.l2.ReadExReq_miss_rate::total         0.992278                       # miss rate for ReadExReq accesses
system.l2.ReadCleanReq_miss_rate::cpu.inst     0.002242                       # miss rate for ReadCleanReq accesses
system.l2.ReadCleanReq_miss_rate::total      0.002242                       # miss rate for ReadCleanReq accesses
system.l2.ReadSharedReq_miss_rate::cpu.data     0.309687                       # miss rate for ReadSharedReq accesses
system.l2.ReadSharedReq_miss_rate::total     0.309687                       # miss rate for ReadSharedReq accesses
system.l2.demand_miss_rate::cpu.inst         0.002242                       # miss rate for demand accesses
system.l2.demand_miss_rate::cpu.data         0.966927                       # miss rate for demand accesses
system.l2.demand_miss_rate::total            0.689562                       # miss rate for demand accesses
system.l2.overall_miss_rate::cpu.inst        0.002242                       # miss rate for overall accesses
system.l2.overall_miss_rate::cpu.data        0.966927                       # miss rate for overall accesses
system.l2.overall_miss_rate::total           0.689562                       # miss rate for overall accesses
system.l2.ReadExReq_avg_miss_latency::cpu.data 78961.315258                       # average ReadExReq miss latency
system.l2.ReadExReq_avg_miss_latency::total 78961.315258                       # average ReadExReq miss latency
system.l2.ReadCleanReq_avg_miss_latency::cpu.inst 84523.676171                       # average ReadCleanReq miss latency
system.l2.ReadCleanReq_avg_miss_latency::total 84523.676171                       # average ReadCleanReq miss latency
system.l2.ReadSharedReq_avg_miss_latency::cpu.data 87127.156402                       # average ReadSharedReq miss latency
system.l2.ReadSharedReq_avg_miss_latency::total 87127.156402                       # average ReadSharedReq miss latency
system.l2.demand_avg_miss_latency::cpu.inst 84523.676171                       # average overall miss latency
system.l2.demand_avg_miss_latency::cpu.data 79058.448171                       # average overall miss latency
system.l2.demand_avg_miss_latency::total 79063.556792                       # average overall miss latency
system.l2.overall_avg_miss_latency::cpu.inst 84523.676171                       # average overall miss latency
system.l2.overall_avg_miss_latency::cpu.data 79058.448171                       # average overall miss latency
system.l2.overall_avg_miss_latency::total 79063.556792                       # average overall miss latency
system.l2.blocked_cycles::no_mshrs                  0                       # number of cycles access was blocked
system.l2.blocked_cycles::no_targets                0                       # number of cycles access was blocked
system.l2.blocked::no_mshrs                         0                       # number of cycles access was blocked
system.l2.blocked::no_targets                       0                       # number of cycles access was blocked
system.l2.avg_blocked_cycles::no_mshrs            nan                       # average number of cycles each access was blocked
system.l2.avg_blocked_cycles::no_targets          nan                       # average number of cycles each access was blocked
system.l2.fast_writes                               0                       # number of fast writes performed
system.l2.cache_copies                              0                       # number of cache copies performed
system.l2.writebacks::writebacks              8347047                       # number of writebacks
system.l2.writebacks::total                   8347047                       # number of writebacks
system.l2.CleanEvict_mshr_misses::writebacks        21678                       # number of CleanEvict MSHR misses
system.l2.CleanEvict_mshr_misses::total         21678                       # number of CleanEvict MSHR misses
system.l2.ReadExReq_mshr_misses::cpu.data      8296656                       # number of ReadExReq MSHR misses
system.l2.ReadExReq_mshr_misses::total        8296656                       # number of ReadExReq MSHR misses
system.l2.ReadCleanReq_mshr_misses::cpu.inst         7856                       # number of ReadCleanReq MSHR misses
system.l2.ReadCleanReq_mshr_misses::total         7856                       # number of ReadCleanReq MSHR misses
system.l2.ReadSharedReq_mshr_misses::cpu.data        99877                       # number of ReadSharedReq MSHR misses
system.l2.ReadSharedReq_mshr_misses::total        99877                       # number of ReadSharedReq MSHR misses
system.l2.demand_mshr_misses::cpu.inst           7856                       # number of demand (read+write) MSHR misses
system.l2.demand_mshr_misses::cpu.data        8396533                       # number of demand (read+write) MSHR misses
system.l2.demand_mshr_misses::total           8404389                       # number of demand (read+write) MSHR misses
system.l2.overall_mshr_misses::cpu.inst          7856                       # number of overall MSHR misses
system.l2.overall_mshr_misses::cpu.data       8396533                       # number of overall MSHR misses
system.l2.overall_mshr_misses::total          8404389                       # number of overall MSHR misses
system.l2.ReadExReq_mshr_miss_latency::cpu.data 572148310000                       # number of ReadExReq MSHR miss cycles
system.l2.ReadExReq_mshr_miss_latency::total 572148310000                       # number of ReadExReq MSHR miss cycles
system.l2.ReadCleanReq_mshr_miss_latency::cpu.inst    585458000                       # number of ReadCleanReq MSHR miss cycles
system.l2.ReadCleanReq_mshr_miss_latency::total    585458000                       # number of ReadCleanReq MSHR miss cycles
system.l2.ReadSharedReq_mshr_miss_latency::cpu.data   7703229000                       # number of ReadSharedReq MSHR miss cycles
system.l2.ReadSharedReq_mshr_miss_latency::total   7703229000                       # number of ReadSharedReq MSHR miss cycles
system.l2.demand_mshr_miss_latency::cpu.inst    585458000                       # number of demand (read+write) MSHR miss cycles
system.l2.demand_mshr_miss_latency::cpu.data 579851539000                       # number of demand (read+write) MSHR miss cycles
system.l2.demand_mshr_miss_latency::total 580436997000                       # number of demand (read+write) MSHR miss cycles
system.l2.overall_mshr_miss_latency::cpu.inst    585458000                       # number of overall MSHR miss cycles
system.l2.overall_mshr_miss_latency::cpu.data 579851539000                       # number of overall MSHR miss cycles
system.l2.overall_mshr_miss_latency::total 580436997000                       # number of overall MSHR miss cycles
system.l2.CleanEvict_mshr_miss_rate::writebacks          inf                       # mshr miss rate for CleanEvict accesses
system.l2.CleanEvict_mshr_miss_rate::total          inf                       # mshr miss rate for CleanEvict accesses
system.l2.ReadExReq_mshr_miss_rate::cpu.data     0.992278                       # mshr miss rate for ReadExReq accesses
system.l2.ReadExReq_mshr_miss_rate::total     0.992278                       # mshr miss rate for ReadExReq accesses
system.l2.ReadCleanReq_mshr_miss_rate::cpu.inst     0.002242                       # mshr miss rate for ReadCleanReq accesses
system.l2.ReadCleanReq_mshr_miss_rate::total     0.002242                       # mshr miss rate for ReadCleanReq accesses
system.l2.ReadSharedReq_mshr_miss_rate::cpu.data     0.309687                       # mshr miss rate for ReadSharedReq accesses
system.l2.ReadSharedReq_mshr_miss_rate::total     0.309687                       # mshr miss rate for ReadSharedReq accesses
system.l2.demand_mshr_miss_rate::cpu.inst     0.002242                       # mshr miss rate for demand accesses
system.l2.demand_mshr_miss_rate::cpu.data     0.966927                       # mshr miss rate for demand accesses
system.l2.demand_mshr_miss_rate::total       0.689562                       # mshr miss rate for demand accesses
system.l2.overall_mshr_miss_rate::cpu.inst     0.002242                       # mshr miss rate for overall accesses
system.l2.overall_mshr_miss_rate::cpu.data     0.966927                       # mshr miss rate for overall accesses
system.l2.overall_mshr_miss_rate::total      0.689562                       # mshr miss rate for overall accesses
system.l2.ReadExReq_avg_mshr_miss_latency::cpu.data 68961.315258                       # average ReadExReq mshr miss latency
system.l2.ReadExReq_avg_mshr_miss_latency::total 68961.315258                       # average ReadExReq mshr miss latency
system.l2.ReadCleanReq_avg_mshr_miss_latency::cpu.inst 74523.676171                       # average ReadCleanReq mshr miss latency
system.l2.ReadCleanReq_avg_mshr_miss_latency::total 74523.676171                       # average ReadCleanReq mshr miss latency
system.l2.ReadSharedReq_avg_mshr_miss_latency::cpu.data 77127.156402                       # average ReadSharedReq mshr miss latency
system.l2.ReadSharedReq_avg_mshr_miss_latency::total 77127.156402                       # average ReadSharedReq mshr miss latency
system.l2.demand_avg_mshr_miss_latency::cpu.inst 74523.676171                       # average overall mshr miss latency
system.l2.demand_avg_mshr_miss_latency::cpu.data 69058.448171                       # average overall mshr miss latency
system.l2.demand_avg_mshr_miss_latency::total 69063.556792                       # average overall mshr miss latency
system.l2.overall_avg_mshr_miss_latency::cpu.inst 74523.676171                       # average overall mshr miss latency
system.l2.overall_avg_mshr_miss_latency::cpu.data 69058.448171                       # average overall mshr miss latency
system.l2.overall_avg_mshr_miss_latency::total 69063.556792                       # average overall mshr miss latency
system.l2.no_allocate_misses                        0                       # Number of misses that were no-allocate
system.membus.trans_dist::ReadResp             107733                       # Transaction distribution
system.membus.trans_dist::WritebackDirty      8347047                       # Transaction distribution
system.membus.trans_dist::CleanEvict            40455                       # Transaction distribution
system.membus.trans_dist::ReadExReq           8296656                       # Transaction distribution
system.membus.trans_dist::ReadExResp          8296656                       # Transaction distribution
system.membus.trans_dist::ReadSharedReq        107733                       # Transaction distribution
system.membus.pkt_count_system.l2.mem_side::system.mem_ctrls.port     25196280                       # Packet count per connected master and slave (bytes)
system.membus.pkt_count_system.l2.mem_side::total     25196280                       # Packet count per connected master and slave (bytes)
system.membus.pkt_count::total               25196280                       # Packet count per connected master and slave (bytes)
system.membus.pkt_size_system.l2.mem_side::system.mem_ctrls.port   1072091904                       # Cumulative packet size per connected master and slave (bytes)
system.membus.pkt_size_system.l2.mem_side::total   1072091904                       # Cumulative packet size per connected master and slave (bytes)
system.membus.pkt_size::total              1072091904                       # Cumulative packet size per connected master and slave (bytes)
system.membus.snoops                                0                       # Total snoops (count)
system.membus.snoop_fanout::samples          16791891                       # Request fanout histogram
system.membus.snoop_fanout::mean                    0                       # Request fanout histogram
system.membus.snoop_fanout::stdev                   0                       # Request fanout histogram
system.membus.snoop_fanout::underflows              0      0.00%      0.00% # Request fanout histogram
system.membus.snoop_fanout::0                16791891    100.00%    100.00% # Request fanout histogram
system.membus.snoop_fanout::1                       0      0.00%    100.00% # Request fanout histogram
system.membus.snoop_fanout::overflows               0      0.00%    100.00% # Request fanout histogram
system.membus.snoop_fanout::min_value               0                       # Request fanout histogram
system.membus.snoop_fanout::max_value               0                       # Request fanout histogram
system.membus.snoop_fanout::total            16791891                       # Request fanout histogram
system.membus.reqLayer2.occupancy         50198271500                       # Layer occupancy (ticks)
system.membus.reqLayer2.utilization               3.0                       # Layer utilization (%)
system.membus.respLayer1.occupancy        44231862500                       # Layer occupancy (ticks)
system.membus.respLayer1.utilization              2.6                       # Layer utilization (%)
system.tol2bus.snoop_filter.tot_requests     24373479                       # Total number of requests made to the snoop filter.
system.tol2bus.snoop_filter.hit_single_requests     12185460                       # Number of requests hitting in the snoop filter with a single holder of the requested data.
system.tol2bus.snoop_filter.hit_multi_requests            1                       # Number of requests hitting in the snoop filter with multiple (>1) holders of the requested data.
system.tol2bus.snoop_filter.tot_snoops          70712                       # Total number of snoops made to the snoop filter.
system.tol2bus.snoop_filter.hit_single_snoops        70711                       # Number of snoops hitting in the snoop filter with a single holder of the requested data.
system.tol2bus.snoop_filter.hit_multi_snoops            1                       # Number of snoops hitting in the snoop filter with multiple (>1) holders of the requested data.
system.tol2bus.trans_dist::ReadResp           3826796                       # Transaction distribution
system.tol2bus.trans_dist::WritebackDirty     16860454                       # Transaction distribution
system.tol2bus.trans_dist::WritebackClean      3503776                       # Transaction distribution
system.tol2bus.trans_dist::CleanEvict          257765                       # Transaction distribution
system.tol2bus.trans_dist::ReadExReq          8361223                       # Transaction distribution
system.tol2bus.trans_dist::ReadExResp         8361223                       # Transaction distribution
system.tol2bus.trans_dist::ReadCleanReq       3504287                       # Transaction distribution
system.tol2bus.trans_dist::ReadSharedReq       322509                       # Transaction distribution
system.tol2bus.pkt_count_system.cpu.icache.mem_side::system.l2.cpu_side     10512350                       # Packet count per connected master and slave (bytes)
system.tol2bus.pkt_count_system.cpu.dcache.mem_side::system.l2.cpu_side     26049147                       # Packet count per connected master and slave (bytes)
system.tol2bus.pkt_count::total              36561497                       # Packet count per connected master and slave (bytes)
system.tol2bus.pkt_size_system.cpu.icache.mem_side::system.l2.cpu_side    448516032                       # Cumulative packet size per connected master and slave (bytes)
system.tol2bus.pkt_size_system.cpu.dcache.mem_side::system.l2.cpu_side   1100616896                       # Cumulative packet size per connected master and slave (bytes)
system.tol2bus.pkt_size::total             1549132928                       # Cumulative packet size per connected master and slave (bytes)
system.tol2bus.snoops                         8436536                       # Total snoops (count)
system.tol2bus.snoop_fanout::samples         20624555                       # Request fanout histogram
system.tol2bus.snoop_fanout::mean            0.003429                       # Request fanout histogram
system.tol2bus.snoop_fanout::stdev           0.058455                       # Request fanout histogram
system.tol2bus.snoop_fanout::underflows             0      0.00%      0.00% # Request fanout histogram
system.tol2bus.snoop_fanout::0               20553842     99.66%     99.66% # Request fanout histogram
system.tol2bus.snoop_fanout::1                  70712      0.34%    100.00% # Request fanout histogram
system.tol2bus.snoop_fanout::2                      1      0.00%    100.00% # Request fanout histogram
system.tol2bus.snoop_fanout::3                      0      0.00%    100.00% # Request fanout histogram
system.tol2bus.snoop_fanout::4                      0      0.00%    100.00% # Request fanout histogram
system.tol2bus.snoop_fanout::overflows              0      0.00%    100.00% # Request fanout histogram
system.tol2bus.snoop_fanout::min_value              0                       # Request fanout histogram
system.tol2bus.snoop_fanout::max_value              2                       # Request fanout histogram
system.tol2bus.snoop_fanout::total           20624555                       # Request fanout histogram
system.tol2bus.reqLayer0.occupancy        24203922500                       # Layer occupancy (ticks)
system.tol2bus.reqLayer0.utilization              1.4                       # Layer utilization (%)
system.tol2bus.respLayer0.occupancy        5256430500                       # Layer occupancy (ticks)
system.tol2bus.respLayer0.utilization             0.3                       # Layer utilization (%)
system.tol2bus.respLayer1.occupancy       13025598000                       # Layer occupancy (ticks)
system.tol2bus.respLayer1.utilization             0.8                       # Layer utilization (%)

---------- End Simulation Statistics   ----------
