
---------- Begin Simulation Statistics ----------
sim_seconds                                  2.314337                       # Number of seconds simulated
sim_ticks                                2314336856500                       # Number of ticks simulated
final_tick                               2314336856500                       # Number of ticks from beginning of simulation (restored from checkpoints and never reset)
sim_freq                                 1000000000000                       # Frequency of simulated ticks
host_inst_rate                                 171872                       # Simulator instruction rate (inst/s)
host_op_rate                                   283028                       # Simulator op (including micro ops) rate (op/s)
host_tick_rate                              795541370                       # Simulator tick rate (ticks/s)
host_mem_usage                                 835448                       # Number of bytes of host memory used
host_seconds                                  2909.13                       # Real time elapsed on the host
sim_insts                                   500000000                       # Number of instructions simulated
sim_ops                                     823366688                       # Number of ops (including micro ops) simulated
system.voltage_domain.voltage                       1                       # Voltage in Volts
system.clk_domain.clock                          1000                       # Clock period in ticks
system.mem_ctrls.bytes_read::cpu.inst          337440                       # Number of bytes read from this memory
system.mem_ctrls.bytes_read::cpu.data       534498816                       # Number of bytes read from this memory
system.mem_ctrls.bytes_read::total          534836256                       # Number of bytes read from this memory
system.mem_ctrls.bytes_inst_read::cpu.inst       337440                       # Number of instructions bytes read from this memory
system.mem_ctrls.bytes_inst_read::total        337440                       # Number of instructions bytes read from this memory
system.mem_ctrls.bytes_written::writebacks    532330976                       # Number of bytes written to this memory
system.mem_ctrls.bytes_written::total       532330976                       # Number of bytes written to this memory
system.mem_ctrls.num_reads::cpu.inst            10545                       # Number of read requests responded to by this memory
system.mem_ctrls.num_reads::cpu.data         16703088                       # Number of read requests responded to by this memory
system.mem_ctrls.num_reads::total            16713633                       # Number of read requests responded to by this memory
system.mem_ctrls.num_writes::writebacks      16635343                       # Number of write requests responded to by this memory
system.mem_ctrls.num_writes::total           16635343                       # Number of write requests responded to by this memory
system.mem_ctrls.bw_read::cpu.inst             145804                       # Total read bandwidth from this memory (bytes/s)
system.mem_ctrls.bw_read::cpu.data          230951175                       # Total read bandwidth from this memory (bytes/s)
system.mem_ctrls.bw_read::total             231096979                       # Total read bandwidth from this memory (bytes/s)
system.mem_ctrls.bw_inst_read::cpu.inst        145804                       # Instruction read bandwidth from this memory (bytes/s)
system.mem_ctrls.bw_inst_read::total           145804                       # Instruction read bandwidth from this memory (bytes/s)
system.mem_ctrls.bw_write::writebacks       230014475                       # Write bandwidth from this memory (bytes/s)
system.mem_ctrls.bw_write::total            230014475                       # Write bandwidth from this memory (bytes/s)
system.mem_ctrls.bw_total::writebacks       230014475                       # Total bandwidth to/from this memory (bytes/s)
system.mem_ctrls.bw_total::cpu.inst            145804                       # Total bandwidth to/from this memory (bytes/s)
system.mem_ctrls.bw_total::cpu.data         230951175                       # Total bandwidth to/from this memory (bytes/s)
system.mem_ctrls.bw_total::total            461111454                       # Total bandwidth to/from this memory (bytes/s)
system.mem_ctrls.readReqs                    16713633                       # Number of read requests accepted
system.mem_ctrls.writeReqs                   16635343                       # Number of write requests accepted
system.mem_ctrls.readBursts                  16713633                       # Number of DRAM read bursts, including those serviced by the write queue
system.mem_ctrls.writeBursts                 16635343                       # Number of DRAM write bursts, including those merged in the write queue
system.mem_ctrls.bytesReadDRAM             1069484416                       # Total number of bytes read from DRAM
system.mem_ctrls.bytesReadWrQ                  188096                       # Total number of bytes read from write queue
system.mem_ctrls.bytesWritten               534990272                       # Total number of bytes written to DRAM
system.mem_ctrls.bytesReadSys               534836256                       # Total read bytes from the system interface side
system.mem_ctrls.bytesWrittenSys            532330976                       # Total written bytes from the system interface side
system.mem_ctrls.servicedByWrQ                   2939                       # Number of DRAM read bursts serviced by the write queue
system.mem_ctrls.mergedWrBursts               8276101                       # Number of DRAM write bursts merged with an existing one
system.mem_ctrls.neitherReadNorWriteReqs        45011                       # Number of requests that are neither read nor write
system.mem_ctrls.perBankRdBursts::0           1041979                       # Per bank write bursts
system.mem_ctrls.perBankRdBursts::1           1041709                       # Per bank write bursts
system.mem_ctrls.perBankRdBursts::2           1042138                       # Per bank write bursts
system.mem_ctrls.perBankRdBursts::3           1046284                       # Per bank write bursts
system.mem_ctrls.perBankRdBursts::4           1059085                       # Per bank write bursts
system.mem_ctrls.perBankRdBursts::5           1043192                       # Per bank write bursts
system.mem_ctrls.perBankRdBursts::6           1042636                       # Per bank write bursts
system.mem_ctrls.perBankRdBursts::7           1043447                       # Per bank write bursts
system.mem_ctrls.perBankRdBursts::8           1041509                       # Per bank write bursts
system.mem_ctrls.perBankRdBursts::9           1042294                       # Per bank write bursts
system.mem_ctrls.perBankRdBursts::10          1048841                       # Per bank write bursts
system.mem_ctrls.perBankRdBursts::11          1045882                       # Per bank write bursts
system.mem_ctrls.perBankRdBursts::12          1043224                       # Per bank write bursts
system.mem_ctrls.perBankRdBursts::13          1043007                       # Per bank write bursts
system.mem_ctrls.perBankRdBursts::14          1042568                       # Per bank write bursts
system.mem_ctrls.perBankRdBursts::15          1042899                       # Per bank write bursts
system.mem_ctrls.perBankWrBursts::0            521974                       # Per bank write bursts
system.mem_ctrls.perBankWrBursts::1            521765                       # Per bank write bursts
system.mem_ctrls.perBankWrBursts::2            522076                       # Per bank write bursts
system.mem_ctrls.perBankWrBursts::3            524987                       # Per bank write bursts
system.mem_ctrls.perBankWrBursts::4            523879                       # Per bank write bursts
system.mem_ctrls.perBankWrBursts::5            522468                       # Per bank write bursts
system.mem_ctrls.perBankWrBursts::6            522046                       # Per bank write bursts
system.mem_ctrls.perBankWrBursts::7            522753                       # Per bank write bursts
system.mem_ctrls.perBankWrBursts::8            521798                       # Per bank write bursts
system.mem_ctrls.perBankWrBursts::9            522054                       # Per bank write bursts
system.mem_ctrls.perBankWrBursts::10           522205                       # Per bank write bursts
system.mem_ctrls.perBankWrBursts::11           522240                       # Per bank write bursts
system.mem_ctrls.perBankWrBursts::12           522285                       # Per bank write bursts
system.mem_ctrls.perBankWrBursts::13           522421                       # Per bank write bursts
system.mem_ctrls.perBankWrBursts::14           522155                       # Per bank write bursts
system.mem_ctrls.perBankWrBursts::15           522117                       # Per bank write bursts
system.mem_ctrls.numRdRetry                         0                       # Number of times read queue was full causing retry
system.mem_ctrls.numWrRetry                         0                       # Number of times write queue was full causing retry
system.mem_ctrls.totGap                  2314323370500                       # Total gap between requests
system.mem_ctrls.readPktSize::0                     0                       # Read request sizes (log2)
system.mem_ctrls.readPktSize::1                     0                       # Read request sizes (log2)
system.mem_ctrls.readPktSize::2                     0                       # Read request sizes (log2)
system.mem_ctrls.readPktSize::3                     0                       # Read request sizes (log2)
system.mem_ctrls.readPktSize::4                     0                       # Read request sizes (log2)
system.mem_ctrls.readPktSize::5              16713633                       # Read request sizes (log2)
system.mem_ctrls.readPktSize::6                     0                       # Read request sizes (log2)
system.mem_ctrls.writePktSize::0                    0                       # Write request sizes (log2)
system.mem_ctrls.writePktSize::1                    0                       # Write request sizes (log2)
system.mem_ctrls.writePktSize::2                    0                       # Write request sizes (log2)
system.mem_ctrls.writePktSize::3                    0                       # Write request sizes (log2)
system.mem_ctrls.writePktSize::4                    0                       # Write request sizes (log2)
system.mem_ctrls.writePktSize::5             16635343                       # Write request sizes (log2)
system.mem_ctrls.writePktSize::6                    0                       # Write request sizes (log2)
system.mem_ctrls.rdQLenPdf::0                16710693                       # What read queue length does an incoming req see
system.mem_ctrls.rdQLenPdf::1                       1                       # What read queue length does an incoming req see
system.mem_ctrls.rdQLenPdf::2                       0                       # What read queue length does an incoming req see
system.mem_ctrls.rdQLenPdf::3                       0                       # What read queue length does an incoming req see
system.mem_ctrls.rdQLenPdf::4                       0                       # What read queue length does an incoming req see
system.mem_ctrls.rdQLenPdf::5                       0                       # What read queue length does an incoming req see
system.mem_ctrls.rdQLenPdf::6                       0                       # What read queue length does an incoming req see
system.mem_ctrls.rdQLenPdf::7                       0                       # What read queue length does an incoming req see
system.mem_ctrls.rdQLenPdf::8                       0                       # What read queue length does an incoming req see
system.mem_ctrls.rdQLenPdf::9                       0                       # What read queue length does an incoming req see
system.mem_ctrls.rdQLenPdf::10                      0                       # What read queue length does an incoming req see
system.mem_ctrls.rdQLenPdf::11                      0                       # What read queue length does an incoming req see
system.mem_ctrls.rdQLenPdf::12                      0                       # What read queue length does an incoming req see
system.mem_ctrls.rdQLenPdf::13                      0                       # What read queue length does an incoming req see
system.mem_ctrls.rdQLenPdf::14                      0                       # What read queue length does an incoming req see
system.mem_ctrls.rdQLenPdf::15                      0                       # What read queue length does an incoming req see
system.mem_ctrls.rdQLenPdf::16                      0                       # What read queue length does an incoming req see
system.mem_ctrls.rdQLenPdf::17                      0                       # What read queue length does an incoming req see
system.mem_ctrls.rdQLenPdf::18                      0                       # What read queue length does an incoming req see
system.mem_ctrls.rdQLenPdf::19                      0                       # What read queue length does an incoming req see
system.mem_ctrls.rdQLenPdf::20                      0                       # What read queue length does an incoming req see
system.mem_ctrls.rdQLenPdf::21                      0                       # What read queue length does an incoming req see
system.mem_ctrls.rdQLenPdf::22                      0                       # What read queue length does an incoming req see
system.mem_ctrls.rdQLenPdf::23                      0                       # What read queue length does an incoming req see
system.mem_ctrls.rdQLenPdf::24                      0                       # What read queue length does an incoming req see
system.mem_ctrls.rdQLenPdf::25                      0                       # What read queue length does an incoming req see
system.mem_ctrls.rdQLenPdf::26                      0                       # What read queue length does an incoming req see
system.mem_ctrls.rdQLenPdf::27                      0                       # What read queue length does an incoming req see
system.mem_ctrls.rdQLenPdf::28                      0                       # What read queue length does an incoming req see
system.mem_ctrls.rdQLenPdf::29                      0                       # What read queue length does an incoming req see
system.mem_ctrls.rdQLenPdf::30                      0                       # What read queue length does an incoming req see
system.mem_ctrls.rdQLenPdf::31                      0                       # What read queue length does an incoming req see
system.mem_ctrls.wrQLenPdf::0                       1                       # What write queue length does an incoming req see
system.mem_ctrls.wrQLenPdf::1                       1                       # What write queue length does an incoming req see
system.mem_ctrls.wrQLenPdf::2                       1                       # What write queue length does an incoming req see
system.mem_ctrls.wrQLenPdf::3                       1                       # What write queue length does an incoming req see
system.mem_ctrls.wrQLenPdf::4                       1                       # What write queue length does an incoming req see
system.mem_ctrls.wrQLenPdf::5                       1                       # What write queue length does an incoming req see
system.mem_ctrls.wrQLenPdf::6                       1                       # What write queue length does an incoming req see
system.mem_ctrls.wrQLenPdf::7                       1                       # What write queue length does an incoming req see
system.mem_ctrls.wrQLenPdf::8                       1                       # What write queue length does an incoming req see
system.mem_ctrls.wrQLenPdf::9                       1                       # What write queue length does an incoming req see
system.mem_ctrls.wrQLenPdf::10                      1                       # What write queue length does an incoming req see
system.mem_ctrls.wrQLenPdf::11                      1                       # What write queue length does an incoming req see
system.mem_ctrls.wrQLenPdf::12                      1                       # What write queue length does an incoming req see
system.mem_ctrls.wrQLenPdf::13                      1                       # What write queue length does an incoming req see
system.mem_ctrls.wrQLenPdf::14                      1                       # What write queue length does an incoming req see
system.mem_ctrls.wrQLenPdf::15                   5830                       # What write queue length does an incoming req see
system.mem_ctrls.wrQLenPdf::16                   5854                       # What write queue length does an incoming req see
system.mem_ctrls.wrQLenPdf::17                 521655                       # What write queue length does an incoming req see
system.mem_ctrls.wrQLenPdf::18                 521722                       # What write queue length does an incoming req see
system.mem_ctrls.wrQLenPdf::19                 521720                       # What write queue length does an incoming req see
system.mem_ctrls.wrQLenPdf::20                 521718                       # What write queue length does an incoming req see
system.mem_ctrls.wrQLenPdf::21                 521718                       # What write queue length does an incoming req see
system.mem_ctrls.wrQLenPdf::22                 521720                       # What write queue length does an incoming req see
system.mem_ctrls.wrQLenPdf::23                 521719                       # What write queue length does an incoming req see
system.mem_ctrls.wrQLenPdf::24                 521718                       # What write queue length does an incoming req see
system.mem_ctrls.wrQLenPdf::25                 521722                       # What write queue length does an incoming req see
system.mem_ctrls.wrQLenPdf::26                 521724                       # What write queue length does an incoming req see
system.mem_ctrls.wrQLenPdf::27                 521741                       # What write queue length does an incoming req see
system.mem_ctrls.wrQLenPdf::28                 521794                       # What write queue length does an incoming req see
system.mem_ctrls.wrQLenPdf::29                 521719                       # What write queue length does an incoming req see
system.mem_ctrls.wrQLenPdf::30                 521718                       # What write queue length does an incoming req see
system.mem_ctrls.wrQLenPdf::31                 521717                       # What write queue length does an incoming req see
system.mem_ctrls.wrQLenPdf::32                 521717                       # What write queue length does an incoming req see
system.mem_ctrls.wrQLenPdf::33                      1                       # What write queue length does an incoming req see
system.mem_ctrls.wrQLenPdf::34                      0                       # What write queue length does an incoming req see
system.mem_ctrls.wrQLenPdf::35                      0                       # What write queue length does an incoming req see
system.mem_ctrls.wrQLenPdf::36                      0                       # What write queue length does an incoming req see
system.mem_ctrls.wrQLenPdf::37                      0                       # What write queue length does an incoming req see
system.mem_ctrls.wrQLenPdf::38                      0                       # What write queue length does an incoming req see
system.mem_ctrls.wrQLenPdf::39                      0                       # What write queue length does an incoming req see
system.mem_ctrls.wrQLenPdf::40                      0                       # What write queue length does an incoming req see
system.mem_ctrls.wrQLenPdf::41                      0                       # What write queue length does an incoming req see
system.mem_ctrls.wrQLenPdf::42                      0                       # What write queue length does an incoming req see
system.mem_ctrls.wrQLenPdf::43                      0                       # What write queue length does an incoming req see
system.mem_ctrls.wrQLenPdf::44                      0                       # What write queue length does an incoming req see
system.mem_ctrls.wrQLenPdf::45                      0                       # What write queue length does an incoming req see
system.mem_ctrls.wrQLenPdf::46                      0                       # What write queue length does an incoming req see
system.mem_ctrls.wrQLenPdf::47                      0                       # What write queue length does an incoming req see
system.mem_ctrls.wrQLenPdf::48                      0                       # What write queue length does an incoming req see
system.mem_ctrls.wrQLenPdf::49                      0                       # What write queue length does an incoming req see
system.mem_ctrls.wrQLenPdf::50                      0                       # What write queue length does an incoming req see
system.mem_ctrls.wrQLenPdf::51                      0                       # What write queue length does an incoming req see
system.mem_ctrls.wrQLenPdf::52                      0                       # What write queue length does an incoming req see
system.mem_ctrls.wrQLenPdf::53                      0                       # What write queue length does an incoming req see
system.mem_ctrls.wrQLenPdf::54                      0                       # What write queue length does an incoming req see
system.mem_ctrls.wrQLenPdf::55                      0                       # What write queue length does an incoming req see
system.mem_ctrls.wrQLenPdf::56                      0                       # What write queue length does an incoming req see
system.mem_ctrls.wrQLenPdf::57                      0                       # What write queue length does an incoming req see
system.mem_ctrls.wrQLenPdf::58                      0                       # What write queue length does an incoming req see
system.mem_ctrls.wrQLenPdf::59                      0                       # What write queue length does an incoming req see
system.mem_ctrls.wrQLenPdf::60                      0                       # What write queue length does an incoming req see
system.mem_ctrls.wrQLenPdf::61                      0                       # What write queue length does an incoming req see
system.mem_ctrls.wrQLenPdf::62                      0                       # What write queue length does an incoming req see
system.mem_ctrls.wrQLenPdf::63                      0                       # What write queue length does an incoming req see
system.mem_ctrls.bytesPerActivate::samples      2012215                       # Bytes accessed per row activation
system.mem_ctrls.bytesPerActivate::mean    797.367422                       # Bytes accessed per row activation
system.mem_ctrls.bytesPerActivate::gmean   614.890735                       # Bytes accessed per row activation
system.mem_ctrls.bytesPerActivate::stdev   357.034186                       # Bytes accessed per row activation
system.mem_ctrls.bytesPerActivate::0-127       234569     11.66%     11.66% # Bytes accessed per row activation
system.mem_ctrls.bytesPerActivate::128-255        72517      3.60%     15.26% # Bytes accessed per row activation
system.mem_ctrls.bytesPerActivate::256-383        57229      2.84%     18.11% # Bytes accessed per row activation
system.mem_ctrls.bytesPerActivate::384-511        83490      4.15%     22.25% # Bytes accessed per row activation
system.mem_ctrls.bytesPerActivate::512-639        75733      3.76%     26.02% # Bytes accessed per row activation
system.mem_ctrls.bytesPerActivate::640-767        55147      2.74%     28.76% # Bytes accessed per row activation
system.mem_ctrls.bytesPerActivate::768-895        61878      3.08%     31.83% # Bytes accessed per row activation
system.mem_ctrls.bytesPerActivate::896-1023        77112      3.83%     35.67% # Bytes accessed per row activation
system.mem_ctrls.bytesPerActivate::1024-1151      1294540     64.33%    100.00% # Bytes accessed per row activation
system.mem_ctrls.bytesPerActivate::total      2012215                       # Bytes accessed per row activation
system.mem_ctrls.rdPerTurnAround::samples       521717                       # Reads before turning the bus around for writes
system.mem_ctrls.rdPerTurnAround::mean      32.030183                       # Reads before turning the bus around for writes
system.mem_ctrls.rdPerTurnAround::gmean     31.953659                       # Reads before turning the bus around for writes
system.mem_ctrls.rdPerTurnAround::stdev     20.224272                       # Reads before turning the bus around for writes
system.mem_ctrls.rdPerTurnAround::0-511        521710    100.00%    100.00% # Reads before turning the bus around for writes
system.mem_ctrls.rdPerTurnAround::512-1023            2      0.00%    100.00% # Reads before turning the bus around for writes
system.mem_ctrls.rdPerTurnAround::2048-2559            1      0.00%    100.00% # Reads before turning the bus around for writes
system.mem_ctrls.rdPerTurnAround::3584-4095            1      0.00%    100.00% # Reads before turning the bus around for writes
system.mem_ctrls.rdPerTurnAround::4608-5119            1      0.00%    100.00% # Reads before turning the bus around for writes
system.mem_ctrls.rdPerTurnAround::7168-7679            1      0.00%    100.00% # Reads before turning the bus around for writes
system.mem_ctrls.rdPerTurnAround::10752-11263            1      0.00%    100.00% # Reads before turning the bus around for writes
system.mem_ctrls.rdPerTurnAround::total        521717                       # Reads before turning the bus around for writes
system.mem_ctrls.wrPerTurnAround::samples       521717                       # Writes before turning the bus around for reads
system.mem_ctrls.wrPerTurnAround::mean      16.022524                       # Writes before turning the bus around for reads
system.mem_ctrls.wrPerTurnAround::gmean     16.021228                       # Writes before turning the bus around for reads
system.mem_ctrls.wrPerTurnAround::stdev      0.211938                       # Writes before turning the bus around for reads
system.mem_ctrls.wrPerTurnAround::16           515865     98.88%     98.88% # Writes before turning the bus around for reads
system.mem_ctrls.wrPerTurnAround::17               23      0.00%     98.88% # Writes before turning the bus around for reads
system.mem_ctrls.wrPerTurnAround::18             5763      1.10%     99.99% # Writes before turning the bus around for reads
system.mem_ctrls.wrPerTurnAround::19               63      0.01%    100.00% # Writes before turning the bus around for reads
system.mem_ctrls.wrPerTurnAround::20                2      0.00%    100.00% # Writes before turning the bus around for reads
system.mem_ctrls.wrPerTurnAround::21                1      0.00%    100.00% # Writes before turning the bus around for reads
system.mem_ctrls.wrPerTurnAround::total        521717                       # Writes before turning the bus around for reads
system.mem_ctrls.totQLat                 122455939250                       # Total ticks spent queuing
system.mem_ctrls.totMemAccLat            435781451750                       # Total ticks spent from burst creation until serviced by the DRAM
system.mem_ctrls.totBusLat                83553470000                       # Total ticks spent in databus transfers
system.mem_ctrls.avgQLat                      7328.00                       # Average queueing delay per DRAM burst
system.mem_ctrls.avgBusLat                    5000.00                       # Average bus latency per DRAM burst
system.mem_ctrls.avgMemAccLat                26078.00                       # Average memory access latency per DRAM burst
system.mem_ctrls.avgRdBW                       462.11                       # Average DRAM read bandwidth in MiByte/s
system.mem_ctrls.avgWrBW                       231.16                       # Average achieved write bandwidth in MiByte/s
system.mem_ctrls.avgRdBWSys                    231.10                       # Average system read bandwidth in MiByte/s
system.mem_ctrls.avgWrBWSys                    230.01                       # Average system write bandwidth in MiByte/s
system.mem_ctrls.peakBW                      12800.00                       # Theoretical peak bandwidth in MiByte/s
system.mem_ctrls.busUtil                         5.42                       # Data bus utilization in percentage
system.mem_ctrls.busUtilRead                     3.61                       # Data bus utilization in percentage for reads
system.mem_ctrls.busUtilWrite                    1.81                       # Data bus utilization in percentage for writes
system.mem_ctrls.avgRdQLen                       1.00                       # Average read queue length when enqueuing
system.mem_ctrls.avgWrQLen                      25.32                       # Average write queue length when enqueuing
system.mem_ctrls.readRowHits                 15344862                       # Number of row buffer hits during reads
system.mem_ctrls.writeRowHits                 7712840                       # Number of row buffer hits during writes
system.mem_ctrls.readRowHitRate                 91.83                       # Row buffer hit rate for reads
system.mem_ctrls.writeRowHitRate                92.27                       # Row buffer hit rate for writes
system.mem_ctrls.avgGap                      69397.13                       # Average gap between requests
system.mem_ctrls.pageHitRate                    91.97                       # Row buffer hit rate, read and write combined
system.mem_ctrls_0.actEnergy               7629839280                       # Energy for activate commands per rank (pJ)
system.mem_ctrls_0.preEnergy               4163106750                       # Energy for precharge commands per rank (pJ)
system.mem_ctrls_0.readEnergy             65211666000                       # Energy for read commands per rank (pJ)
system.mem_ctrls_0.writeEnergy            27099023040                       # Energy for write commands per rank (pJ)
system.mem_ctrls_0.refreshEnergy         151160814480                       # Energy for refresh commands per rank (pJ)
system.mem_ctrls_0.actBackEnergy         634184793000                       # Energy for active background per rank (pJ)
system.mem_ctrls_0.preBackEnergy         832295965500                       # Energy for precharge background per rank (pJ)
system.mem_ctrls_0.totalEnergy           1721745208050                       # Total energy per rank (pJ)
system.mem_ctrls_0.averagePower            743.949520                       # Core power per rank (mW)
system.mem_ctrls_0.memoryStateTime::IDLE 1372554086750                       # Time in different power states
system.mem_ctrls_0.memoryStateTime::REF   77280580000                       # Time in different power states
system.mem_ctrls_0.memoryStateTime::PRE_PDN            0                       # Time in different power states
system.mem_ctrls_0.memoryStateTime::ACT  864496039500                       # Time in different power states
system.mem_ctrls_0.memoryStateTime::ACT_PDN            0                       # Time in different power states
system.mem_ctrls_1.actEnergy               7582506120                       # Energy for activate commands per rank (pJ)
system.mem_ctrls_1.preEnergy               4137280125                       # Energy for precharge commands per rank (pJ)
system.mem_ctrls_1.readEnergy             65131747200                       # Energy for read commands per rank (pJ)
system.mem_ctrls_1.writeEnergy            27068742000                       # Energy for write commands per rank (pJ)
system.mem_ctrls_1.refreshEnergy         151160814480                       # Energy for refresh commands per rank (pJ)
system.mem_ctrls_1.actBackEnergy         626873755545                       # Energy for active background per rank (pJ)
system.mem_ctrls_1.preBackEnergy         838709164500                       # Energy for precharge background per rank (pJ)
system.mem_ctrls_1.totalEnergy           1720664009970                       # Total energy per rank (pJ)
system.mem_ctrls_1.averagePower            743.482340                       # Core power per rank (mW)
system.mem_ctrls_1.memoryStateTime::IDLE 1383250050750                       # Time in different power states
system.mem_ctrls_1.memoryStateTime::REF   77280580000                       # Time in different power states
system.mem_ctrls_1.memoryStateTime::PRE_PDN            0                       # Time in different power states
system.mem_ctrls_1.memoryStateTime::ACT  853800089250                       # Time in different power states
system.mem_ctrls_1.memoryStateTime::ACT_PDN            0                       # Time in different power states
system.cpu_voltage_domain.voltage                   1                       # Voltage in Volts
system.cpu_clk_domain.clock                       500                       # Clock period in ticks
system.cpu.apic_clk_domain.clock                 8000                       # Clock period in ticks
system.cpu.workload.num_syscalls                  196                       # Number of system calls
system.cpu.numCycles                       4628673713                       # number of cpu cycles simulated
system.cpu.numWorkItemsStarted                      0                       # number of work items this cpu started
system.cpu.numWorkItemsCompleted                    0                       # number of work items this cpu completed
system.cpu.committedInsts                   500000000                       # Number of instructions committed
system.cpu.committedOps                     823366688                       # Number of ops (including micro ops) committed
system.cpu.num_int_alu_accesses             821415780                       # Number of integer alu accesses
system.cpu.num_fp_alu_accesses               66619254                       # Number of float alu accesses
system.cpu.num_func_calls                     5652773                       # number of times a function call or return occured
system.cpu.num_conditional_control_insts     57208851                       # number of instructions that are conditional controls
system.cpu.num_int_insts                    821415780                       # number of integer instructions
system.cpu.num_fp_insts                      66619254                       # number of float instructions
system.cpu.num_int_register_reads          1637209921                       # number of times the integer registers were read
system.cpu.num_int_register_writes          639871071                       # number of times the integer registers were written
system.cpu.num_fp_register_reads             66766844                       # number of times the floating registers were read
system.cpu.num_fp_register_writes              208042                       # number of times the floating registers were written
system.cpu.num_cc_register_reads            319714234                       # number of times the CC registers were read
system.cpu.num_cc_register_writes           287984020                       # number of times the CC registers were written
system.cpu.num_mem_refs                     271673944                       # number of memory refs
system.cpu.num_load_insts                   157213786                       # Number of load instructions
system.cpu.num_store_insts                  114460158                       # Number of store instructions
system.cpu.num_idle_cycles                          0                       # Number of idle cycles
system.cpu.num_busy_cycles                 4628673713                       # Number of busy cycles
system.cpu.not_idle_fraction                        1                       # Percentage of non-idle cycles
system.cpu.idle_fraction                            0                       # Percentage of idle cycles
system.cpu.Branches                          69678398                       # Number of branches fetched
system.cpu.op_class::No_OpClass                202233      0.02%      0.02% # Class of executed instruction
system.cpu.op_class::IntAlu                 550028809     66.80%     66.83% # Class of executed instruction
system.cpu.op_class::IntMult                   125092      0.02%     66.84% # Class of executed instruction
system.cpu.op_class::IntDiv                   1153479      0.14%     66.98% # Class of executed instruction
system.cpu.op_class::FloatAdd                  183131      0.02%     67.00% # Class of executed instruction
system.cpu.op_class::FloatCmp                       0      0.00%     67.00% # Class of executed instruction
system.cpu.op_class::FloatCvt                       0      0.00%     67.00% # Class of executed instruction
system.cpu.op_class::FloatMult                      0      0.00%     67.00% # Class of executed instruction
system.cpu.op_class::FloatDiv                       0      0.00%     67.00% # Class of executed instruction
system.cpu.op_class::FloatSqrt                      0      0.00%     67.00% # Class of executed instruction
system.cpu.op_class::SimdAdd                        0      0.00%     67.00% # Class of executed instruction
system.cpu.op_class::SimdAddAcc                     0      0.00%     67.00% # Class of executed instruction
system.cpu.op_class::SimdAlu                        0      0.00%     67.00% # Class of executed instruction
system.cpu.op_class::SimdCmp                        0      0.00%     67.00% # Class of executed instruction
system.cpu.op_class::SimdCvt                        0      0.00%     67.00% # Class of executed instruction
system.cpu.op_class::SimdMisc                       0      0.00%     67.00% # Class of executed instruction
system.cpu.op_class::SimdMult                       0      0.00%     67.00% # Class of executed instruction
system.cpu.op_class::SimdMultAcc                    0      0.00%     67.00% # Class of executed instruction
system.cpu.op_class::SimdShift                      0      0.00%     67.00% # Class of executed instruction
system.cpu.op_class::SimdShiftAcc                   0      0.00%     67.00% # Class of executed instruction
system.cpu.op_class::SimdSqrt                       0      0.00%     67.00% # Class of executed instruction
system.cpu.op_class::SimdFloatAdd                   0      0.00%     67.00% # Class of executed instruction
system.cpu.op_class::SimdFloatAlu                   0      0.00%     67.00% # Class of executed instruction
system.cpu.op_class::SimdFloatCmp                   0      0.00%     67.00% # Class of executed instruction
system.cpu.op_class::SimdFloatCvt                   0      0.00%     67.00% # Class of executed instruction
system.cpu.op_class::SimdFloatDiv                   0      0.00%     67.00% # Class of executed instruction
system.cpu.op_class::SimdFloatMisc                  0      0.00%     67.00% # Class of executed instruction
system.cpu.op_class::SimdFloatMult                  0      0.00%     67.00% # Class of executed instruction
system.cpu.op_class::SimdFloatMultAcc               0      0.00%     67.00% # Class of executed instruction
system.cpu.op_class::SimdFloatSqrt                  0      0.00%     67.00% # Class of executed instruction
system.cpu.op_class::MemRead                157213786     19.09%     86.10% # Class of executed instruction
system.cpu.op_class::MemWrite               114460158     13.90%    100.00% # Class of executed instruction
system.cpu.op_class::IprAccess                      0      0.00%    100.00% # Class of executed instruction
system.cpu.op_class::InstPrefetch                   0      0.00%    100.00% # Class of executed instruction
system.cpu.op_class::total                  823366688                       # Class of executed instruction
system.cpu.dcache.tags.replacements          17948149                       # number of replacements
system.cpu.dcache.tags.tagsinuse          1023.862381                       # Cycle average of tags in use
system.cpu.dcache.tags.total_refs           253725387                       # Total number of references to valid blocks.
system.cpu.dcache.tags.sampled_refs          17949173                       # Sample count of references to valid blocks.
system.cpu.dcache.tags.avg_refs             14.135770                       # Average number of references to valid blocks.
system.cpu.dcache.tags.warmup_cycle        3084118500                       # Cycle when the warmup percentage was hit.
system.cpu.dcache.tags.occ_blocks::cpu.data  1023.862381                       # Average occupied blocks per requestor
system.cpu.dcache.tags.occ_percent::cpu.data     0.999866                       # Average percentage of cache occupancy
system.cpu.dcache.tags.occ_percent::total     0.999866                       # Average percentage of cache occupancy
system.cpu.dcache.tags.occ_task_id_blocks::1024         1024                       # Occupied blocks per task id
system.cpu.dcache.tags.age_task_id_blocks_1024::0            8                       # Occupied blocks per task id
system.cpu.dcache.tags.age_task_id_blocks_1024::1           92                       # Occupied blocks per task id
system.cpu.dcache.tags.age_task_id_blocks_1024::2          209                       # Occupied blocks per task id
system.cpu.dcache.tags.age_task_id_blocks_1024::3          485                       # Occupied blocks per task id
system.cpu.dcache.tags.age_task_id_blocks_1024::4          230                       # Occupied blocks per task id
system.cpu.dcache.tags.occ_task_id_percent::1024            1                       # Percentage of cache occupancy per task id
system.cpu.dcache.tags.tag_accesses         289623733                       # Number of tag accesses
system.cpu.dcache.tags.data_accesses        289623733                       # Number of data accesses
system.cpu.dcache.ReadReq_hits::cpu.data    156297897                       # number of ReadReq hits
system.cpu.dcache.ReadReq_hits::total       156297897                       # number of ReadReq hits
system.cpu.dcache.WriteReq_hits::cpu.data     97427490                       # number of WriteReq hits
system.cpu.dcache.WriteReq_hits::total       97427490                       # number of WriteReq hits
system.cpu.dcache.demand_hits::cpu.data     253725387                       # number of demand (read+write) hits
system.cpu.dcache.demand_hits::total        253725387                       # number of demand (read+write) hits
system.cpu.dcache.overall_hits::cpu.data    253725387                       # number of overall hits
system.cpu.dcache.overall_hits::total       253725387                       # number of overall hits
system.cpu.dcache.ReadReq_misses::cpu.data       916493                       # number of ReadReq misses
system.cpu.dcache.ReadReq_misses::total        916493                       # number of ReadReq misses
system.cpu.dcache.WriteReq_misses::cpu.data     17032680                       # number of WriteReq misses
system.cpu.dcache.WriteReq_misses::total     17032680                       # number of WriteReq misses
system.cpu.dcache.demand_misses::cpu.data     17949173                       # number of demand (read+write) misses
system.cpu.dcache.demand_misses::total       17949173                       # number of demand (read+write) misses
system.cpu.dcache.overall_misses::cpu.data     17949173                       # number of overall misses
system.cpu.dcache.overall_misses::total      17949173                       # number of overall misses
system.cpu.dcache.ReadReq_miss_latency::cpu.data  20033115000                       # number of ReadReq miss cycles
system.cpu.dcache.ReadReq_miss_latency::total  20033115000                       # number of ReadReq miss cycles
system.cpu.dcache.WriteReq_miss_latency::cpu.data 1304563067000                       # number of WriteReq miss cycles
system.cpu.dcache.WriteReq_miss_latency::total 1304563067000                       # number of WriteReq miss cycles
system.cpu.dcache.demand_miss_latency::cpu.data 1324596182000                       # number of demand (read+write) miss cycles
system.cpu.dcache.demand_miss_latency::total 1324596182000                       # number of demand (read+write) miss cycles
system.cpu.dcache.overall_miss_latency::cpu.data 1324596182000                       # number of overall miss cycles
system.cpu.dcache.overall_miss_latency::total 1324596182000                       # number of overall miss cycles
system.cpu.dcache.ReadReq_accesses::cpu.data    157214390                       # number of ReadReq accesses(hits+misses)
system.cpu.dcache.ReadReq_accesses::total    157214390                       # number of ReadReq accesses(hits+misses)
system.cpu.dcache.WriteReq_accesses::cpu.data    114460170                       # number of WriteReq accesses(hits+misses)
system.cpu.dcache.WriteReq_accesses::total    114460170                       # number of WriteReq accesses(hits+misses)
system.cpu.dcache.demand_accesses::cpu.data    271674560                       # number of demand (read+write) accesses
system.cpu.dcache.demand_accesses::total    271674560                       # number of demand (read+write) accesses
system.cpu.dcache.overall_accesses::cpu.data    271674560                       # number of overall (read+write) accesses
system.cpu.dcache.overall_accesses::total    271674560                       # number of overall (read+write) accesses
system.cpu.dcache.ReadReq_miss_rate::cpu.data     0.005830                       # miss rate for ReadReq accesses
system.cpu.dcache.ReadReq_miss_rate::total     0.005830                       # miss rate for ReadReq accesses
system.cpu.dcache.WriteReq_miss_rate::cpu.data     0.148809                       # miss rate for WriteReq accesses
system.cpu.dcache.WriteReq_miss_rate::total     0.148809                       # miss rate for WriteReq accesses
system.cpu.dcache.demand_miss_rate::cpu.data     0.066069                       # miss rate for demand accesses
system.cpu.dcache.demand_miss_rate::total     0.066069                       # miss rate for demand accesses
system.cpu.dcache.overall_miss_rate::cpu.data     0.066069                       # miss rate for overall accesses
system.cpu.dcache.overall_miss_rate::total     0.066069                       # miss rate for overall accesses
system.cpu.dcache.ReadReq_avg_miss_latency::cpu.data 21858.448455                       # average ReadReq miss latency
system.cpu.dcache.ReadReq_avg_miss_latency::total 21858.448455                       # average ReadReq miss latency
system.cpu.dcache.WriteReq_avg_miss_latency::cpu.data 76591.767532                       # average WriteReq miss latency
system.cpu.dcache.WriteReq_avg_miss_latency::total 76591.767532                       # average WriteReq miss latency
system.cpu.dcache.demand_avg_miss_latency::cpu.data 73797.059174                       # average overall miss latency
system.cpu.dcache.demand_avg_miss_latency::total 73797.059174                       # average overall miss latency
system.cpu.dcache.overall_avg_miss_latency::cpu.data 73797.059174                       # average overall miss latency
system.cpu.dcache.overall_avg_miss_latency::total 73797.059174                       # average overall miss latency
system.cpu.dcache.blocked_cycles::no_mshrs            0                       # number of cycles access was blocked
system.cpu.dcache.blocked_cycles::no_targets            0                       # number of cycles access was blocked
system.cpu.dcache.blocked::no_mshrs                 0                       # number of cycles access was blocked
system.cpu.dcache.blocked::no_targets               0                       # number of cycles access was blocked
system.cpu.dcache.avg_blocked_cycles::no_mshrs          nan                       # average number of cycles each access was blocked
system.cpu.dcache.avg_blocked_cycles::no_targets          nan                       # average number of cycles each access was blocked
system.cpu.dcache.fast_writes                       0                       # number of fast writes performed
system.cpu.dcache.cache_copies                      0                       # number of cache copies performed
system.cpu.dcache.writebacks::writebacks     17457255                       # number of writebacks
system.cpu.dcache.writebacks::total          17457255                       # number of writebacks
system.cpu.dcache.ReadReq_mshr_misses::cpu.data       916493                       # number of ReadReq MSHR misses
system.cpu.dcache.ReadReq_mshr_misses::total       916493                       # number of ReadReq MSHR misses
system.cpu.dcache.WriteReq_mshr_misses::cpu.data     17032680                       # number of WriteReq MSHR misses
system.cpu.dcache.WriteReq_mshr_misses::total     17032680                       # number of WriteReq MSHR misses
system.cpu.dcache.demand_mshr_misses::cpu.data     17949173                       # number of demand (read+write) MSHR misses
system.cpu.dcache.demand_mshr_misses::total     17949173                       # number of demand (read+write) MSHR misses
system.cpu.dcache.overall_mshr_misses::cpu.data     17949173                       # number of overall MSHR misses
system.cpu.dcache.overall_mshr_misses::total     17949173                       # number of overall MSHR misses
system.cpu.dcache.ReadReq_mshr_miss_latency::cpu.data  19116622000                       # number of ReadReq MSHR miss cycles
system.cpu.dcache.ReadReq_mshr_miss_latency::total  19116622000                       # number of ReadReq MSHR miss cycles
system.cpu.dcache.WriteReq_mshr_miss_latency::cpu.data 1287530387000                       # number of WriteReq MSHR miss cycles
system.cpu.dcache.WriteReq_mshr_miss_latency::total 1287530387000                       # number of WriteReq MSHR miss cycles
system.cpu.dcache.demand_mshr_miss_latency::cpu.data 1306647009000                       # number of demand (read+write) MSHR miss cycles
system.cpu.dcache.demand_mshr_miss_latency::total 1306647009000                       # number of demand (read+write) MSHR miss cycles
system.cpu.dcache.overall_mshr_miss_latency::cpu.data 1306647009000                       # number of overall MSHR miss cycles
system.cpu.dcache.overall_mshr_miss_latency::total 1306647009000                       # number of overall MSHR miss cycles
system.cpu.dcache.ReadReq_mshr_miss_rate::cpu.data     0.005830                       # mshr miss rate for ReadReq accesses
system.cpu.dcache.ReadReq_mshr_miss_rate::total     0.005830                       # mshr miss rate for ReadReq accesses
system.cpu.dcache.WriteReq_mshr_miss_rate::cpu.data     0.148809                       # mshr miss rate for WriteReq accesses
system.cpu.dcache.WriteReq_mshr_miss_rate::total     0.148809                       # mshr miss rate for WriteReq accesses
system.cpu.dcache.demand_mshr_miss_rate::cpu.data     0.066069                       # mshr miss rate for demand accesses
system.cpu.dcache.demand_mshr_miss_rate::total     0.066069                       # mshr miss rate for demand accesses
system.cpu.dcache.overall_mshr_miss_rate::cpu.data     0.066069                       # mshr miss rate for overall accesses
system.cpu.dcache.overall_mshr_miss_rate::total     0.066069                       # mshr miss rate for overall accesses
system.cpu.dcache.ReadReq_avg_mshr_miss_latency::cpu.data 20858.448455                       # average ReadReq mshr miss latency
system.cpu.dcache.ReadReq_avg_mshr_miss_latency::total 20858.448455                       # average ReadReq mshr miss latency
system.cpu.dcache.WriteReq_avg_mshr_miss_latency::cpu.data 75591.767532                       # average WriteReq mshr miss latency
system.cpu.dcache.WriteReq_avg_mshr_miss_latency::total 75591.767532                       # average WriteReq mshr miss latency
system.cpu.dcache.demand_avg_mshr_miss_latency::cpu.data 72797.059174                       # average overall mshr miss latency
system.cpu.dcache.demand_avg_mshr_miss_latency::total 72797.059174                       # average overall mshr miss latency
system.cpu.dcache.overall_avg_mshr_miss_latency::cpu.data 72797.059174                       # average overall mshr miss latency
system.cpu.dcache.overall_avg_mshr_miss_latency::total 72797.059174                       # average overall mshr miss latency
system.cpu.dcache.no_allocate_misses                0                       # Number of misses that were no-allocate
system.cpu.dtb_walker_cache.tags.replacements            0                       # number of replacements
system.cpu.dtb_walker_cache.tags.tagsinuse            0                       # Cycle average of tags in use
system.cpu.dtb_walker_cache.tags.total_refs            0                       # Total number of references to valid blocks.
system.cpu.dtb_walker_cache.tags.sampled_refs            0                       # Sample count of references to valid blocks.
system.cpu.dtb_walker_cache.tags.avg_refs          nan                       # Average number of references to valid blocks.
system.cpu.dtb_walker_cache.tags.warmup_cycle            0                       # Cycle when the warmup percentage was hit.
system.cpu.dtb_walker_cache.tags.tag_accesses            0                       # Number of tag accesses
system.cpu.dtb_walker_cache.tags.data_accesses            0                       # Number of data accesses
system.cpu.dtb_walker_cache.blocked_cycles::no_mshrs            0                       # number of cycles access was blocked
system.cpu.dtb_walker_cache.blocked_cycles::no_targets            0                       # number of cycles access was blocked
system.cpu.dtb_walker_cache.blocked::no_mshrs            0                       # number of cycles access was blocked
system.cpu.dtb_walker_cache.blocked::no_targets            0                       # number of cycles access was blocked
system.cpu.dtb_walker_cache.avg_blocked_cycles::no_mshrs          nan                       # average number of cycles each access was blocked
system.cpu.dtb_walker_cache.avg_blocked_cycles::no_targets          nan                       # average number of cycles each access was blocked
system.cpu.dtb_walker_cache.fast_writes             0                       # number of fast writes performed
system.cpu.dtb_walker_cache.cache_copies            0                       # number of cache copies performed
system.cpu.dtb_walker_cache.no_allocate_misses            0                       # Number of misses that were no-allocate
system.cpu.icache.tags.replacements           4990286                       # number of replacements
system.cpu.icache.tags.tagsinuse           792.433151                       # Cycle average of tags in use
system.cpu.icache.tags.total_refs           670362360                       # Total number of references to valid blocks.
system.cpu.icache.tags.sampled_refs           4991302                       # Sample count of references to valid blocks.
system.cpu.icache.tags.avg_refs            134.306111                       # Average number of references to valid blocks.
system.cpu.icache.tags.warmup_cycle                 0                       # Cycle when the warmup percentage was hit.
system.cpu.icache.tags.occ_blocks::cpu.inst   792.433151                       # Average occupied blocks per requestor
system.cpu.icache.tags.occ_percent::cpu.inst     0.773860                       # Average percentage of cache occupancy
system.cpu.icache.tags.occ_percent::total     0.773860                       # Average percentage of cache occupancy
system.cpu.icache.tags.occ_task_id_blocks::1024         1016                       # Occupied blocks per task id
system.cpu.icache.tags.age_task_id_blocks_1024::0            8                       # Occupied blocks per task id
system.cpu.icache.tags.age_task_id_blocks_1024::1          188                       # Occupied blocks per task id
system.cpu.icache.tags.age_task_id_blocks_1024::2           42                       # Occupied blocks per task id
system.cpu.icache.tags.age_task_id_blocks_1024::3           34                       # Occupied blocks per task id
system.cpu.icache.tags.age_task_id_blocks_1024::4          744                       # Occupied blocks per task id
system.cpu.icache.tags.occ_task_id_percent::1024     0.992188                       # Percentage of cache occupancy per task id
system.cpu.icache.tags.tag_accesses         680344964                       # Number of tag accesses
system.cpu.icache.tags.data_accesses        680344964                       # Number of data accesses
system.cpu.icache.ReadReq_hits::cpu.inst    670362360                       # number of ReadReq hits
system.cpu.icache.ReadReq_hits::total       670362360                       # number of ReadReq hits
system.cpu.icache.demand_hits::cpu.inst     670362360                       # number of demand (read+write) hits
system.cpu.icache.demand_hits::total        670362360                       # number of demand (read+write) hits
system.cpu.icache.overall_hits::cpu.inst    670362360                       # number of overall hits
system.cpu.icache.overall_hits::total       670362360                       # number of overall hits
system.cpu.icache.ReadReq_misses::cpu.inst      4991302                       # number of ReadReq misses
system.cpu.icache.ReadReq_misses::total       4991302                       # number of ReadReq misses
system.cpu.icache.demand_misses::cpu.inst      4991302                       # number of demand (read+write) misses
system.cpu.icache.demand_misses::total        4991302                       # number of demand (read+write) misses
system.cpu.icache.overall_misses::cpu.inst      4991302                       # number of overall misses
system.cpu.icache.overall_misses::total       4991302                       # number of overall misses
system.cpu.icache.ReadReq_miss_latency::cpu.inst  65653377000                       # number of ReadReq miss cycles
system.cpu.icache.ReadReq_miss_latency::total  65653377000                       # number of ReadReq miss cycles
system.cpu.icache.demand_miss_latency::cpu.inst  65653377000                       # number of demand (read+write) miss cycles
system.cpu.icache.demand_miss_latency::total  65653377000                       # number of demand (read+write) miss cycles
system.cpu.icache.overall_miss_latency::cpu.inst  65653377000                       # number of overall miss cycles
system.cpu.icache.overall_miss_latency::total  65653377000                       # number of overall miss cycles
system.cpu.icache.ReadReq_accesses::cpu.inst    675353662                       # number of ReadReq accesses(hits+misses)
system.cpu.icache.ReadReq_accesses::total    675353662                       # number of ReadReq accesses(hits+misses)
system.cpu.icache.demand_accesses::cpu.inst    675353662                       # number of demand (read+write) accesses
system.cpu.icache.demand_accesses::total    675353662                       # number of demand (read+write) accesses
system.cpu.icache.overall_accesses::cpu.inst    675353662                       # number of overall (read+write) accesses
system.cpu.icache.overall_accesses::total    675353662                       # number of overall (read+write) accesses
system.cpu.icache.ReadReq_miss_rate::cpu.inst     0.007391                       # miss rate for ReadReq accesses
system.cpu.icache.ReadReq_miss_rate::total     0.007391                       # miss rate for ReadReq accesses
system.cpu.icache.demand_miss_rate::cpu.inst     0.007391                       # miss rate for demand accesses
system.cpu.icache.demand_miss_rate::total     0.007391                       # miss rate for demand accesses
system.cpu.icache.overall_miss_rate::cpu.inst     0.007391                       # miss rate for overall accesses
system.cpu.icache.overall_miss_rate::total     0.007391                       # miss rate for overall accesses
system.cpu.icache.ReadReq_avg_miss_latency::cpu.inst 13153.557328                       # average ReadReq miss latency
system.cpu.icache.ReadReq_avg_miss_latency::total 13153.557328                       # average ReadReq miss latency
system.cpu.icache.demand_avg_miss_latency::cpu.inst 13153.557328                       # average overall miss latency
system.cpu.icache.demand_avg_miss_latency::total 13153.557328                       # average overall miss latency
system.cpu.icache.overall_avg_miss_latency::cpu.inst 13153.557328                       # average overall miss latency
system.cpu.icache.overall_avg_miss_latency::total 13153.557328                       # average overall miss latency
system.cpu.icache.blocked_cycles::no_mshrs            0                       # number of cycles access was blocked
system.cpu.icache.blocked_cycles::no_targets            0                       # number of cycles access was blocked
system.cpu.icache.blocked::no_mshrs                 0                       # number of cycles access was blocked
system.cpu.icache.blocked::no_targets               0                       # number of cycles access was blocked
system.cpu.icache.avg_blocked_cycles::no_mshrs          nan                       # average number of cycles each access was blocked
system.cpu.icache.avg_blocked_cycles::no_targets          nan                       # average number of cycles each access was blocked
system.cpu.icache.fast_writes                       0                       # number of fast writes performed
system.cpu.icache.cache_copies                      0                       # number of cache copies performed
system.cpu.icache.writebacks::writebacks      4990286                       # number of writebacks
system.cpu.icache.writebacks::total           4990286                       # number of writebacks
system.cpu.icache.ReadReq_mshr_misses::cpu.inst      4991302                       # number of ReadReq MSHR misses
system.cpu.icache.ReadReq_mshr_misses::total      4991302                       # number of ReadReq MSHR misses
system.cpu.icache.demand_mshr_misses::cpu.inst      4991302                       # number of demand (read+write) MSHR misses
system.cpu.icache.demand_mshr_misses::total      4991302                       # number of demand (read+write) MSHR misses
system.cpu.icache.overall_mshr_misses::cpu.inst      4991302                       # number of overall MSHR misses
system.cpu.icache.overall_mshr_misses::total      4991302                       # number of overall MSHR misses
system.cpu.icache.ReadReq_mshr_miss_latency::cpu.inst  60662075000                       # number of ReadReq MSHR miss cycles
system.cpu.icache.ReadReq_mshr_miss_latency::total  60662075000                       # number of ReadReq MSHR miss cycles
system.cpu.icache.demand_mshr_miss_latency::cpu.inst  60662075000                       # number of demand (read+write) MSHR miss cycles
system.cpu.icache.demand_mshr_miss_latency::total  60662075000                       # number of demand (read+write) MSHR miss cycles
system.cpu.icache.overall_mshr_miss_latency::cpu.inst  60662075000                       # number of overall MSHR miss cycles
system.cpu.icache.overall_mshr_miss_latency::total  60662075000                       # number of overall MSHR miss cycles
system.cpu.icache.ReadReq_mshr_miss_rate::cpu.inst     0.007391                       # mshr miss rate for ReadReq accesses
system.cpu.icache.ReadReq_mshr_miss_rate::total     0.007391                       # mshr miss rate for ReadReq accesses
system.cpu.icache.demand_mshr_miss_rate::cpu.inst     0.007391                       # mshr miss rate for demand accesses
system.cpu.icache.demand_mshr_miss_rate::total     0.007391                       # mshr miss rate for demand accesses
system.cpu.icache.overall_mshr_miss_rate::cpu.inst     0.007391                       # mshr miss rate for overall accesses
system.cpu.icache.overall_mshr_miss_rate::total     0.007391                       # mshr miss rate for overall accesses
system.cpu.icache.ReadReq_avg_mshr_miss_latency::cpu.inst 12153.557328                       # average ReadReq mshr miss latency
system.cpu.icache.ReadReq_avg_mshr_miss_latency::total 12153.557328                       # average ReadReq mshr miss latency
system.cpu.icache.demand_avg_mshr_miss_latency::cpu.inst 12153.557328                       # average overall mshr miss latency
system.cpu.icache.demand_avg_mshr_miss_latency::total 12153.557328                       # average overall mshr miss latency
system.cpu.icache.overall_avg_mshr_miss_latency::cpu.inst 12153.557328                       # average overall mshr miss latency
system.cpu.icache.overall_avg_mshr_miss_latency::total 12153.557328                       # average overall mshr miss latency
system.cpu.icache.no_allocate_misses                0                       # Number of misses that were no-allocate
system.cpu.itb_walker_cache.tags.replacements            0                       # number of replacements
system.cpu.itb_walker_cache.tags.tagsinuse            0                       # Cycle average of tags in use
system.cpu.itb_walker_cache.tags.total_refs            0                       # Total number of references to valid blocks.
system.cpu.itb_walker_cache.tags.sampled_refs            0                       # Sample count of references to valid blocks.
system.cpu.itb_walker_cache.tags.avg_refs          nan                       # Average number of references to valid blocks.
system.cpu.itb_walker_cache.tags.warmup_cycle            0                       # Cycle when the warmup percentage was hit.
system.cpu.itb_walker_cache.tags.tag_accesses            0                       # Number of tag accesses
system.cpu.itb_walker_cache.tags.data_accesses            0                       # Number of data accesses
system.cpu.itb_walker_cache.blocked_cycles::no_mshrs            0                       # number of cycles access was blocked
system.cpu.itb_walker_cache.blocked_cycles::no_targets            0                       # number of cycles access was blocked
system.cpu.itb_walker_cache.blocked::no_mshrs            0                       # number of cycles access was blocked
system.cpu.itb_walker_cache.blocked::no_targets            0                       # number of cycles access was blocked
system.cpu.itb_walker_cache.avg_blocked_cycles::no_mshrs          nan                       # average number of cycles each access was blocked
system.cpu.itb_walker_cache.avg_blocked_cycles::no_targets          nan                       # average number of cycles each access was blocked
system.cpu.itb_walker_cache.fast_writes             0                       # number of fast writes performed
system.cpu.itb_walker_cache.cache_copies            0                       # number of cache copies performed
system.cpu.itb_walker_cache.no_allocate_misses            0                       # Number of misses that were no-allocate
system.l2.tags.replacements                  16722720                       # number of replacements
system.l2.tags.tagsinuse                 31923.047587                       # Cycle average of tags in use
system.l2.tags.total_refs                    12000899                       # Total number of references to valid blocks.
system.l2.tags.sampled_refs                  16755243                       # Sample count of references to valid blocks.
system.l2.tags.avg_refs                      0.716247                       # Average number of references to valid blocks.
system.l2.tags.warmup_cycle                         0                       # Cycle when the warmup percentage was hit.
system.l2.tags.occ_blocks::writebacks    25763.475506                       # Average occupied blocks per requestor
system.l2.tags.occ_blocks::cpu.inst        394.676038                       # Average occupied blocks per requestor
system.l2.tags.occ_blocks::cpu.data       5764.896042                       # Average occupied blocks per requestor
system.l2.tags.occ_percent::writebacks       0.786239                       # Average percentage of cache occupancy
system.l2.tags.occ_percent::cpu.inst         0.012045                       # Average percentage of cache occupancy
system.l2.tags.occ_percent::cpu.data         0.175931                       # Average percentage of cache occupancy
system.l2.tags.occ_percent::total            0.974214                       # Average percentage of cache occupancy
system.l2.tags.occ_task_id_blocks::1024         32523                       # Occupied blocks per task id
system.l2.tags.age_task_id_blocks_1024::0            1                       # Occupied blocks per task id
system.l2.tags.age_task_id_blocks_1024::1           52                       # Occupied blocks per task id
system.l2.tags.age_task_id_blocks_1024::2          202                       # Occupied blocks per task id
system.l2.tags.age_task_id_blocks_1024::3          959                       # Occupied blocks per task id
system.l2.tags.age_task_id_blocks_1024::4        31309                       # Occupied blocks per task id
system.l2.tags.occ_task_id_percent::1024     0.992523                       # Percentage of cache occupancy per task id
system.l2.tags.tag_accesses                  79666833                       # Number of tag accesses
system.l2.tags.data_accesses                 79666833                       # Number of data accesses
system.l2.WritebackDirty_hits::writebacks     17457255                       # number of WritebackDirty hits
system.l2.WritebackDirty_hits::total         17457255                       # number of WritebackDirty hits
system.l2.WritebackClean_hits::writebacks      4990286                       # number of WritebackClean hits
system.l2.WritebackClean_hits::total          4990286                       # number of WritebackClean hits
system.l2.ReadExReq_hits::cpu.data             436787                       # number of ReadExReq hits
system.l2.ReadExReq_hits::total                436787                       # number of ReadExReq hits
system.l2.ReadCleanReq_hits::cpu.inst         4980757                       # number of ReadCleanReq hits
system.l2.ReadCleanReq_hits::total            4980757                       # number of ReadCleanReq hits
system.l2.ReadSharedReq_hits::cpu.data         809298                       # number of ReadSharedReq hits
system.l2.ReadSharedReq_hits::total            809298                       # number of ReadSharedReq hits
system.l2.demand_hits::cpu.inst               4980757                       # number of demand (read+write) hits
system.l2.demand_hits::cpu.data               1246085                       # number of demand (read+write) hits
system.l2.demand_hits::total                  6226842                       # number of demand (read+write) hits
system.l2.overall_hits::cpu.inst              4980757                       # number of overall hits
system.l2.overall_hits::cpu.data              1246085                       # number of overall hits
system.l2.overall_hits::total                 6226842                       # number of overall hits
system.l2.ReadExReq_misses::cpu.data         16595893                       # number of ReadExReq misses
system.l2.ReadExReq_misses::total            16595893                       # number of ReadExReq misses
system.l2.ReadCleanReq_misses::cpu.inst         10545                       # number of ReadCleanReq misses
system.l2.ReadCleanReq_misses::total            10545                       # number of ReadCleanReq misses
system.l2.ReadSharedReq_misses::cpu.data       107195                       # number of ReadSharedReq misses
system.l2.ReadSharedReq_misses::total          107195                       # number of ReadSharedReq misses
system.l2.demand_misses::cpu.inst               10545                       # number of demand (read+write) misses
system.l2.demand_misses::cpu.data            16703088                       # number of demand (read+write) misses
system.l2.demand_misses::total               16713633                       # number of demand (read+write) misses
system.l2.overall_misses::cpu.inst              10545                       # number of overall misses
system.l2.overall_misses::cpu.data           16703088                       # number of overall misses
system.l2.overall_misses::total              16713633                       # number of overall misses
system.l2.ReadExReq_miss_latency::cpu.data 1257395103500                       # number of ReadExReq miss cycles
system.l2.ReadExReq_miss_latency::total  1257395103500                       # number of ReadExReq miss cycles
system.l2.ReadCleanReq_miss_latency::cpu.inst    877173500                       # number of ReadCleanReq miss cycles
system.l2.ReadCleanReq_miss_latency::total    877173500                       # number of ReadCleanReq miss cycles
system.l2.ReadSharedReq_miss_latency::cpu.data   9244253000                       # number of ReadSharedReq miss cycles
system.l2.ReadSharedReq_miss_latency::total   9244253000                       # number of ReadSharedReq miss cycles
system.l2.demand_miss_latency::cpu.inst     877173500                       # number of demand (read+write) miss cycles
system.l2.demand_miss_latency::cpu.data  1266639356500                       # number of demand (read+write) miss cycles
system.l2.demand_miss_latency::total     1267516530000                       # number of demand (read+write) miss cycles
system.l2.overall_miss_latency::cpu.inst    877173500                       # number of overall miss cycles
system.l2.overall_miss_latency::cpu.data 1266639356500                       # number of overall miss cycles
system.l2.overall_miss_latency::total    1267516530000                       # number of overall miss cycles
system.l2.WritebackDirty_accesses::writebacks     17457255                       # number of WritebackDirty accesses(hits+misses)
system.l2.WritebackDirty_accesses::total     17457255                       # number of WritebackDirty accesses(hits+misses)
system.l2.WritebackClean_accesses::writebacks      4990286                       # number of WritebackClean accesses(hits+misses)
system.l2.WritebackClean_accesses::total      4990286                       # number of WritebackClean accesses(hits+misses)
system.l2.ReadExReq_accesses::cpu.data       17032680                       # number of ReadExReq accesses(hits+misses)
system.l2.ReadExReq_accesses::total          17032680                       # number of ReadExReq accesses(hits+misses)
system.l2.ReadCleanReq_accesses::cpu.inst      4991302                       # number of ReadCleanReq accesses(hits+misses)
system.l2.ReadCleanReq_accesses::total        4991302                       # number of ReadCleanReq accesses(hits+misses)
system.l2.ReadSharedReq_accesses::cpu.data       916493                       # number of ReadSharedReq accesses(hits+misses)
system.l2.ReadSharedReq_accesses::total        916493                       # number of ReadSharedReq accesses(hits+misses)
system.l2.demand_accesses::cpu.inst           4991302                       # number of demand (read+write) accesses
system.l2.demand_accesses::cpu.data          17949173                       # number of demand (read+write) accesses
system.l2.demand_accesses::total             22940475                       # number of demand (read+write) accesses
system.l2.overall_accesses::cpu.inst          4991302                       # number of overall (read+write) accesses
system.l2.overall_accesses::cpu.data         17949173                       # number of overall (read+write) accesses
system.l2.overall_accesses::total            22940475                       # number of overall (read+write) accesses
system.l2.ReadExReq_miss_rate::cpu.data      0.974356                       # miss rate for ReadExReq accesses
system.l2.ReadExReq_miss_rate::total         0.974356                       # miss rate for ReadExReq accesses
system.l2.ReadCleanReq_miss_rate::cpu.inst     0.002113                       # miss rate for ReadCleanReq accesses
system.l2.ReadCleanReq_miss_rate::total      0.002113                       # miss rate for ReadCleanReq accesses
system.l2.ReadSharedReq_miss_rate::cpu.data     0.116962                       # miss rate for ReadSharedReq accesses
system.l2.ReadSharedReq_miss_rate::total     0.116962                       # miss rate for ReadSharedReq accesses
system.l2.demand_miss_rate::cpu.inst         0.002113                       # miss rate for demand accesses
system.l2.demand_miss_rate::cpu.data         0.930577                       # miss rate for demand accesses
system.l2.demand_miss_rate::total            0.728565                       # miss rate for demand accesses
system.l2.overall_miss_rate::cpu.inst        0.002113                       # miss rate for overall accesses
system.l2.overall_miss_rate::cpu.data        0.930577                       # miss rate for overall accesses
system.l2.overall_miss_rate::total           0.728565                       # miss rate for overall accesses
system.l2.ReadExReq_avg_miss_latency::cpu.data 75765.438082                       # average ReadExReq miss latency
system.l2.ReadExReq_avg_miss_latency::total 75765.438082                       # average ReadExReq miss latency
system.l2.ReadCleanReq_avg_miss_latency::cpu.inst 83183.831200                       # average ReadCleanReq miss latency
system.l2.ReadCleanReq_avg_miss_latency::total 83183.831200                       # average ReadCleanReq miss latency
system.l2.ReadSharedReq_avg_miss_latency::cpu.data 86237.725640                       # average ReadSharedReq miss latency
system.l2.ReadSharedReq_avg_miss_latency::total 86237.725640                       # average ReadSharedReq miss latency
system.l2.demand_avg_miss_latency::cpu.inst 83183.831200                       # average overall miss latency
system.l2.demand_avg_miss_latency::cpu.data 75832.645826                       # average overall miss latency
system.l2.demand_avg_miss_latency::total 75837.283851                       # average overall miss latency
system.l2.overall_avg_miss_latency::cpu.inst 83183.831200                       # average overall miss latency
system.l2.overall_avg_miss_latency::cpu.data 75832.645826                       # average overall miss latency
system.l2.overall_avg_miss_latency::total 75837.283851                       # average overall miss latency
system.l2.blocked_cycles::no_mshrs                  0                       # number of cycles access was blocked
system.l2.blocked_cycles::no_targets                0                       # number of cycles access was blocked
system.l2.blocked::no_mshrs                         0                       # number of cycles access was blocked
system.l2.blocked::no_targets                       0                       # number of cycles access was blocked
system.l2.avg_blocked_cycles::no_mshrs            nan                       # average number of cycles each access was blocked
system.l2.avg_blocked_cycles::no_targets          nan                       # average number of cycles each access was blocked
system.l2.fast_writes                               0                       # number of fast writes performed
system.l2.cache_copies                              0                       # number of cache copies performed
system.l2.writebacks::writebacks             16635343                       # number of writebacks
system.l2.writebacks::total                  16635343                       # number of writebacks
system.l2.CleanEvict_mshr_misses::writebacks        21971                       # number of CleanEvict MSHR misses
system.l2.CleanEvict_mshr_misses::total         21971                       # number of CleanEvict MSHR misses
system.l2.ReadExReq_mshr_misses::cpu.data     16595893                       # number of ReadExReq MSHR misses
system.l2.ReadExReq_mshr_misses::total       16595893                       # number of ReadExReq MSHR misses
system.l2.ReadCleanReq_mshr_misses::cpu.inst        10545                       # number of ReadCleanReq MSHR misses
system.l2.ReadCleanReq_mshr_misses::total        10545                       # number of ReadCleanReq MSHR misses
system.l2.ReadSharedReq_mshr_misses::cpu.data       107195                       # number of ReadSharedReq MSHR misses
system.l2.ReadSharedReq_mshr_misses::total       107195                       # number of ReadSharedReq MSHR misses
system.l2.demand_mshr_misses::cpu.inst          10545                       # number of demand (read+write) MSHR misses
system.l2.demand_mshr_misses::cpu.data       16703088                       # number of demand (read+write) MSHR misses
system.l2.demand_mshr_misses::total          16713633                       # number of demand (read+write) MSHR misses
system.l2.overall_mshr_misses::cpu.inst         10545                       # number of overall MSHR misses
system.l2.overall_mshr_misses::cpu.data      16703088                       # number of overall MSHR misses
system.l2.overall_mshr_misses::total         16713633                       # number of overall MSHR misses
system.l2.ReadExReq_mshr_miss_latency::cpu.data 1091436173500                       # number of ReadExReq MSHR miss cycles
system.l2.ReadExReq_mshr_miss_latency::total 1091436173500                       # number of ReadExReq MSHR miss cycles
system.l2.ReadCleanReq_mshr_miss_latency::cpu.inst    771723500                       # number of ReadCleanReq MSHR miss cycles
system.l2.ReadCleanReq_mshr_miss_latency::total    771723500                       # number of ReadCleanReq MSHR miss cycles
system.l2.ReadSharedReq_mshr_miss_latency::cpu.data   8172303000                       # number of ReadSharedReq MSHR miss cycles
system.l2.ReadSharedReq_mshr_miss_latency::total   8172303000                       # number of ReadSharedReq MSHR miss cycles
system.l2.demand_mshr_miss_latency::cpu.inst    771723500                       # number of demand (read+write) MSHR miss cycles
system.l2.demand_mshr_miss_latency::cpu.data 1099608476500                       # number of demand (read+write) MSHR miss cycles
system.l2.demand_mshr_miss_latency::total 1100380200000                       # number of demand (read+write) MSHR miss cycles
system.l2.overall_mshr_miss_latency::cpu.inst    771723500                       # number of overall MSHR miss cycles
system.l2.overall_mshr_miss_latency::cpu.data 1099608476500                       # number of overall MSHR miss cycles
system.l2.overall_mshr_miss_latency::total 1100380200000                       # number of overall MSHR miss cycles
system.l2.CleanEvict_mshr_miss_rate::writebacks          inf                       # mshr miss rate for CleanEvict accesses
system.l2.CleanEvict_mshr_miss_rate::total          inf                       # mshr miss rate for CleanEvict accesses
system.l2.ReadExReq_mshr_miss_rate::cpu.data     0.974356                       # mshr miss rate for ReadExReq accesses
system.l2.ReadExReq_mshr_miss_rate::total     0.974356                       # mshr miss rate for ReadExReq accesses
system.l2.ReadCleanReq_mshr_miss_rate::cpu.inst     0.002113                       # mshr miss rate for ReadCleanReq accesses
system.l2.ReadCleanReq_mshr_miss_rate::total     0.002113                       # mshr miss rate for ReadCleanReq accesses
system.l2.ReadSharedReq_mshr_miss_rate::cpu.data     0.116962                       # mshr miss rate for ReadSharedReq accesses
system.l2.ReadSharedReq_mshr_miss_rate::total     0.116962                       # mshr miss rate for ReadSharedReq accesses
system.l2.demand_mshr_miss_rate::cpu.inst     0.002113                       # mshr miss rate for demand accesses
system.l2.demand_mshr_miss_rate::cpu.data     0.930577                       # mshr miss rate for demand accesses
system.l2.demand_mshr_miss_rate::total       0.728565                       # mshr miss rate for demand accesses
system.l2.overall_mshr_miss_rate::cpu.inst     0.002113                       # mshr miss rate for overall accesses
system.l2.overall_mshr_miss_rate::cpu.data     0.930577                       # mshr miss rate for overall accesses
system.l2.overall_mshr_miss_rate::total      0.728565                       # mshr miss rate for overall accesses
system.l2.ReadExReq_avg_mshr_miss_latency::cpu.data 65765.438082                       # average ReadExReq mshr miss latency
system.l2.ReadExReq_avg_mshr_miss_latency::total 65765.438082                       # average ReadExReq mshr miss latency
system.l2.ReadCleanReq_avg_mshr_miss_latency::cpu.inst 73183.831200                       # average ReadCleanReq mshr miss latency
system.l2.ReadCleanReq_avg_mshr_miss_latency::total 73183.831200                       # average ReadCleanReq mshr miss latency
system.l2.ReadSharedReq_avg_mshr_miss_latency::cpu.data 76237.725640                       # average ReadSharedReq mshr miss latency
system.l2.ReadSharedReq_avg_mshr_miss_latency::total 76237.725640                       # average ReadSharedReq mshr miss latency
system.l2.demand_avg_mshr_miss_latency::cpu.inst 73183.831200                       # average overall mshr miss latency
system.l2.demand_avg_mshr_miss_latency::cpu.data 65832.645826                       # average overall mshr miss latency
system.l2.demand_avg_mshr_miss_latency::total 65837.283851                       # average overall mshr miss latency
system.l2.overall_avg_mshr_miss_latency::cpu.inst 73183.831200                       # average overall mshr miss latency
system.l2.overall_avg_mshr_miss_latency::cpu.data 65832.645826                       # average overall mshr miss latency
system.l2.overall_avg_mshr_miss_latency::total 65837.283851                       # average overall mshr miss latency
system.l2.no_allocate_misses                        0                       # Number of misses that were no-allocate
system.membus.trans_dist::ReadResp             117740                       # Transaction distribution
system.membus.trans_dist::WritebackDirty     16635343                       # Transaction distribution
system.membus.trans_dist::CleanEvict            45011                       # Transaction distribution
system.membus.trans_dist::ReadExReq          16595893                       # Transaction distribution
system.membus.trans_dist::ReadExResp         16595893                       # Transaction distribution
system.membus.trans_dist::ReadSharedReq        117740                       # Transaction distribution
system.membus.pkt_count_system.l2.mem_side::system.mem_ctrls.port     50107620                       # Packet count per connected master and slave (bytes)
system.membus.pkt_count_system.l2.mem_side::total     50107620                       # Packet count per connected master and slave (bytes)
system.membus.pkt_count::total               50107620                       # Packet count per connected master and slave (bytes)
system.membus.pkt_size_system.l2.mem_side::system.mem_ctrls.port   1067167232                       # Cumulative packet size per connected master and slave (bytes)
system.membus.pkt_size_system.l2.mem_side::total   1067167232                       # Cumulative packet size per connected master and slave (bytes)
system.membus.pkt_size::total              1067167232                       # Cumulative packet size per connected master and slave (bytes)
system.membus.snoops                                0                       # Total snoops (count)
system.membus.snoop_fanout::samples          33393987                       # Request fanout histogram
system.membus.snoop_fanout::mean                    0                       # Request fanout histogram
system.membus.snoop_fanout::stdev                   0                       # Request fanout histogram
system.membus.snoop_fanout::underflows              0      0.00%      0.00% # Request fanout histogram
system.membus.snoop_fanout::0                33393987    100.00%    100.00% # Request fanout histogram
system.membus.snoop_fanout::1                       0      0.00%    100.00% # Request fanout histogram
system.membus.snoop_fanout::overflows               0      0.00%    100.00% # Request fanout histogram
system.membus.snoop_fanout::min_value               0                       # Request fanout histogram
system.membus.snoop_fanout::max_value               0                       # Request fanout histogram
system.membus.snoop_fanout::total            33393987                       # Request fanout histogram
system.membus.reqLayer2.occupancy         66664729000                       # Layer occupancy (ticks)
system.membus.reqLayer2.utilization               2.9                       # Layer utilization (%)
system.membus.respLayer1.occupancy        54580207250                       # Layer occupancy (ticks)
system.membus.respLayer1.utilization              2.4                       # Layer utilization (%)
system.tol2bus.snoop_filter.tot_requests     45878910                       # Total number of requests made to the snoop filter.
system.tol2bus.snoop_filter.hit_single_requests     22938435                       # Number of requests hitting in the snoop filter with a single holder of the requested data.
system.tol2bus.snoop_filter.hit_multi_requests            0                       # Number of requests hitting in the snoop filter with multiple (>1) holders of the requested data.
system.tol2bus.snoop_filter.tot_snoops          64337                       # Total number of snoops made to the snoop filter.
system.tol2bus.snoop_filter.hit_single_snoops        64337                       # Number of snoops hitting in the snoop filter with a single holder of the requested data.
system.tol2bus.snoop_filter.hit_multi_snoops            0                       # Number of snoops hitting in the snoop filter with multiple (>1) holders of the requested data.
system.tol2bus.trans_dist::ReadResp           5907795                       # Transaction distribution
system.tol2bus.trans_dist::WritebackDirty     34092598                       # Transaction distribution
system.tol2bus.trans_dist::WritebackClean      4990286                       # Transaction distribution
system.tol2bus.trans_dist::CleanEvict          578271                       # Transaction distribution
system.tol2bus.trans_dist::ReadExReq         17032680                       # Transaction distribution
system.tol2bus.trans_dist::ReadExResp        17032680                       # Transaction distribution
system.tol2bus.trans_dist::ReadCleanReq       4991302                       # Transaction distribution
system.tol2bus.trans_dist::ReadSharedReq       916493                       # Transaction distribution
system.tol2bus.pkt_count_system.cpu.icache.mem_side::system.l2.cpu_side     14972890                       # Packet count per connected master and slave (bytes)
system.tol2bus.pkt_count_system.cpu.dcache.mem_side::system.l2.cpu_side     53846495                       # Packet count per connected master and slave (bytes)
system.tol2bus.pkt_count::total              68819385                       # Packet count per connected master and slave (bytes)
system.tol2bus.pkt_size_system.cpu.icache.mem_side::system.l2.cpu_side    319410816                       # Cumulative packet size per connected master and slave (bytes)
system.tol2bus.pkt_size_system.cpu.dcache.mem_side::system.l2.cpu_side   1133005696                       # Cumulative packet size per connected master and slave (bytes)
system.tol2bus.pkt_size::total             1452416512                       # Cumulative packet size per connected master and slave (bytes)
system.tol2bus.snoops                        16722720                       # Total snoops (count)
system.tol2bus.snoop_fanout::samples         39663195                       # Request fanout histogram
system.tol2bus.snoop_fanout::mean            0.001622                       # Request fanout histogram
system.tol2bus.snoop_fanout::stdev           0.040242                       # Request fanout histogram
system.tol2bus.snoop_fanout::underflows             0      0.00%      0.00% # Request fanout histogram
system.tol2bus.snoop_fanout::0               39598858     99.84%     99.84% # Request fanout histogram
system.tol2bus.snoop_fanout::1                  64337      0.16%    100.00% # Request fanout histogram
system.tol2bus.snoop_fanout::2                      0      0.00%    100.00% # Request fanout histogram
system.tol2bus.snoop_fanout::3                      0      0.00%    100.00% # Request fanout histogram
system.tol2bus.snoop_fanout::4                      0      0.00%    100.00% # Request fanout histogram
system.tol2bus.snoop_fanout::overflows              0      0.00%    100.00% # Request fanout histogram
system.tol2bus.snoop_fanout::min_value              0                       # Request fanout histogram
system.tol2bus.snoop_fanout::max_value              1                       # Request fanout histogram
system.tol2bus.snoop_fanout::total           39663195                       # Request fanout histogram
system.tol2bus.reqLayer0.occupancy        34163225500                       # Layer occupancy (ticks)
system.tol2bus.reqLayer0.utilization              1.5                       # Layer utilization (%)
system.tol2bus.respLayer0.occupancy        4991302000                       # Layer occupancy (ticks)
system.tol2bus.respLayer0.utilization             0.2                       # Layer utilization (%)
system.tol2bus.respLayer1.occupancy       17949173000                       # Layer occupancy (ticks)
system.tol2bus.respLayer1.utilization             0.8                       # Layer utilization (%)

---------- End Simulation Statistics   ----------
