
---------- Begin Simulation Statistics ----------
sim_seconds                                  1.673598                       # Number of seconds simulated
sim_ticks                                1673597919500                       # Number of ticks simulated
final_tick                               1673597919500                       # Number of ticks from beginning of simulation (restored from checkpoints and never reset)
sim_freq                                 1000000000000                       # Frequency of simulated ticks
host_inst_rate                                 192961                       # Simulator instruction rate (inst/s)
host_op_rate                                   317755                       # Simulator op (including micro ops) rate (op/s)
host_tick_rate                              645878567                       # Simulator tick rate (ticks/s)
host_mem_usage                                 833016                       # Number of bytes of host memory used
host_seconds                                  2591.20                       # Real time elapsed on the host
sim_insts                                   500000000                       # Number of instructions simulated
sim_ops                                     823366688                       # Number of ops (including micro ops) simulated
system.voltage_domain.voltage                       1                       # Voltage in Volts
system.clk_domain.clock                          1000                       # Clock period in ticks
system.mem_ctrls.bytes_read::cpu.inst          622016                       # Number of bytes read from this memory
system.mem_ctrls.bytes_read::cpu.data       537685056                       # Number of bytes read from this memory
system.mem_ctrls.bytes_read::total          538307072                       # Number of bytes read from this memory
system.mem_ctrls.bytes_inst_read::cpu.inst       622016                       # Number of instructions bytes read from this memory
system.mem_ctrls.bytes_inst_read::total        622016                       # Number of instructions bytes read from this memory
system.mem_ctrls.bytes_written::writebacks    534360640                       # Number of bytes written to this memory
system.mem_ctrls.bytes_written::total       534360640                       # Number of bytes written to this memory
system.mem_ctrls.num_reads::cpu.inst             9719                       # Number of read requests responded to by this memory
system.mem_ctrls.num_reads::cpu.data          8401329                       # Number of read requests responded to by this memory
system.mem_ctrls.num_reads::total             8411048                       # Number of read requests responded to by this memory
system.mem_ctrls.num_writes::writebacks       8349385                       # Number of write requests responded to by this memory
system.mem_ctrls.num_writes::total            8349385                       # Number of write requests responded to by this memory
system.mem_ctrls.bw_read::cpu.inst             371664                       # Total read bandwidth from this memory (bytes/s)
system.mem_ctrls.bw_read::cpu.data          321274931                       # Total read bandwidth from this memory (bytes/s)
system.mem_ctrls.bw_read::total             321646595                       # Total read bandwidth from this memory (bytes/s)
system.mem_ctrls.bw_inst_read::cpu.inst        371664                       # Instruction read bandwidth from this memory (bytes/s)
system.mem_ctrls.bw_inst_read::total           371664                       # Instruction read bandwidth from this memory (bytes/s)
system.mem_ctrls.bw_write::writebacks       319288542                       # Write bandwidth from this memory (bytes/s)
system.mem_ctrls.bw_write::total            319288542                       # Write bandwidth from this memory (bytes/s)
system.mem_ctrls.bw_total::writebacks       319288542                       # Total bandwidth to/from this memory (bytes/s)
system.mem_ctrls.bw_total::cpu.inst            371664                       # Total bandwidth to/from this memory (bytes/s)
system.mem_ctrls.bw_total::cpu.data         321274931                       # Total bandwidth to/from this memory (bytes/s)
system.mem_ctrls.bw_total::total            640935137                       # Total bandwidth to/from this memory (bytes/s)
system.mem_ctrls.readReqs                     8411048                       # Number of read requests accepted
system.mem_ctrls.writeReqs                    8349385                       # Number of write requests accepted
system.mem_ctrls.readBursts                   8411048                       # Number of DRAM read bursts, including those serviced by the write queue
system.mem_ctrls.writeBursts                  8349385                       # Number of DRAM write bursts, including those merged in the write queue
system.mem_ctrls.bytesReadDRAM              538226496                       # Total number of bytes read from DRAM
system.mem_ctrls.bytesReadWrQ                   80576                       # Total number of bytes read from write queue
system.mem_ctrls.bytesWritten               534343744                       # Total number of bytes written to DRAM
system.mem_ctrls.bytesReadSys               538307072                       # Total read bytes from the system interface side
system.mem_ctrls.bytesWrittenSys            534360640                       # Total written bytes from the system interface side
system.mem_ctrls.servicedByWrQ                   1259                       # Number of DRAM read bursts serviced by the write queue
system.mem_ctrls.mergedWrBursts                   232                       # Number of DRAM write bursts merged with an existing one
system.mem_ctrls.neitherReadNorWriteReqs        44960                       # Number of requests that are neither read nor write
system.mem_ctrls.perBankRdBursts::0            523607                       # Per bank write bursts
system.mem_ctrls.perBankRdBursts::1            523395                       # Per bank write bursts
system.mem_ctrls.perBankRdBursts::2            523731                       # Per bank write bursts
system.mem_ctrls.perBankRdBursts::3            525802                       # Per bank write bursts
system.mem_ctrls.perBankRdBursts::4            536262                       # Per bank write bursts
system.mem_ctrls.perBankRdBursts::5            524431                       # Per bank write bursts
system.mem_ctrls.perBankRdBursts::6            524418                       # Per bank write bursts
system.mem_ctrls.perBankRdBursts::7            524530                       # Per bank write bursts
system.mem_ctrls.perBankRdBursts::8            523322                       # Per bank write bursts
system.mem_ctrls.perBankRdBursts::9            524081                       # Per bank write bursts
system.mem_ctrls.perBankRdBursts::10           531869                       # Per bank write bursts
system.mem_ctrls.perBankRdBursts::11           526658                       # Per bank write bursts
system.mem_ctrls.perBankRdBursts::12           524787                       # Per bank write bursts
system.mem_ctrls.perBankRdBursts::13           524414                       # Per bank write bursts
system.mem_ctrls.perBankRdBursts::14           524125                       # Per bank write bursts
system.mem_ctrls.perBankRdBursts::15           524357                       # Per bank write bursts
system.mem_ctrls.perBankWrBursts::0            521599                       # Per bank write bursts
system.mem_ctrls.perBankWrBursts::1            521406                       # Per bank write bursts
system.mem_ctrls.perBankWrBursts::2            521657                       # Per bank write bursts
system.mem_ctrls.perBankWrBursts::3            522950                       # Per bank write bursts
system.mem_ctrls.perBankWrBursts::4            522280                       # Per bank write bursts
system.mem_ctrls.perBankWrBursts::5            522009                       # Per bank write bursts
system.mem_ctrls.perBankWrBursts::6            521587                       # Per bank write bursts
system.mem_ctrls.perBankWrBursts::7            521791                       # Per bank write bursts
system.mem_ctrls.perBankWrBursts::8            521340                       # Per bank write bursts
system.mem_ctrls.perBankWrBursts::9            521556                       # Per bank write bursts
system.mem_ctrls.perBankWrBursts::10           521710                       # Per bank write bursts
system.mem_ctrls.perBankWrBursts::11           521864                       # Per bank write bursts
system.mem_ctrls.perBankWrBursts::12           521923                       # Per bank write bursts
system.mem_ctrls.perBankWrBursts::13           521960                       # Per bank write bursts
system.mem_ctrls.perBankWrBursts::14           521765                       # Per bank write bursts
system.mem_ctrls.perBankWrBursts::15           521724                       # Per bank write bursts
system.mem_ctrls.numRdRetry                         0                       # Number of times read queue was full causing retry
system.mem_ctrls.numWrRetry                         0                       # Number of times write queue was full causing retry
system.mem_ctrls.totGap                  1673584929500                       # Total gap between requests
system.mem_ctrls.readPktSize::0                     0                       # Read request sizes (log2)
system.mem_ctrls.readPktSize::1                     0                       # Read request sizes (log2)
system.mem_ctrls.readPktSize::2                     0                       # Read request sizes (log2)
system.mem_ctrls.readPktSize::3                     0                       # Read request sizes (log2)
system.mem_ctrls.readPktSize::4                     0                       # Read request sizes (log2)
system.mem_ctrls.readPktSize::5                     0                       # Read request sizes (log2)
system.mem_ctrls.readPktSize::6               8411048                       # Read request sizes (log2)
system.mem_ctrls.writePktSize::0                    0                       # Write request sizes (log2)
system.mem_ctrls.writePktSize::1                    0                       # Write request sizes (log2)
system.mem_ctrls.writePktSize::2                    0                       # Write request sizes (log2)
system.mem_ctrls.writePktSize::3                    0                       # Write request sizes (log2)
system.mem_ctrls.writePktSize::4                    0                       # Write request sizes (log2)
system.mem_ctrls.writePktSize::5                    0                       # Write request sizes (log2)
system.mem_ctrls.writePktSize::6              8349385                       # Write request sizes (log2)
system.mem_ctrls.rdQLenPdf::0                 8409788                       # What read queue length does an incoming req see
system.mem_ctrls.rdQLenPdf::1                       1                       # What read queue length does an incoming req see
system.mem_ctrls.rdQLenPdf::2                       0                       # What read queue length does an incoming req see
system.mem_ctrls.rdQLenPdf::3                       0                       # What read queue length does an incoming req see
system.mem_ctrls.rdQLenPdf::4                       0                       # What read queue length does an incoming req see
system.mem_ctrls.rdQLenPdf::5                       0                       # What read queue length does an incoming req see
system.mem_ctrls.rdQLenPdf::6                       0                       # What read queue length does an incoming req see
system.mem_ctrls.rdQLenPdf::7                       0                       # What read queue length does an incoming req see
system.mem_ctrls.rdQLenPdf::8                       0                       # What read queue length does an incoming req see
system.mem_ctrls.rdQLenPdf::9                       0                       # What read queue length does an incoming req see
system.mem_ctrls.rdQLenPdf::10                      0                       # What read queue length does an incoming req see
system.mem_ctrls.rdQLenPdf::11                      0                       # What read queue length does an incoming req see
system.mem_ctrls.rdQLenPdf::12                      0                       # What read queue length does an incoming req see
system.mem_ctrls.rdQLenPdf::13                      0                       # What read queue length does an incoming req see
system.mem_ctrls.rdQLenPdf::14                      0                       # What read queue length does an incoming req see
system.mem_ctrls.rdQLenPdf::15                      0                       # What read queue length does an incoming req see
system.mem_ctrls.rdQLenPdf::16                      0                       # What read queue length does an incoming req see
system.mem_ctrls.rdQLenPdf::17                      0                       # What read queue length does an incoming req see
system.mem_ctrls.rdQLenPdf::18                      0                       # What read queue length does an incoming req see
system.mem_ctrls.rdQLenPdf::19                      0                       # What read queue length does an incoming req see
system.mem_ctrls.rdQLenPdf::20                      0                       # What read queue length does an incoming req see
system.mem_ctrls.rdQLenPdf::21                      0                       # What read queue length does an incoming req see
system.mem_ctrls.rdQLenPdf::22                      0                       # What read queue length does an incoming req see
system.mem_ctrls.rdQLenPdf::23                      0                       # What read queue length does an incoming req see
system.mem_ctrls.rdQLenPdf::24                      0                       # What read queue length does an incoming req see
system.mem_ctrls.rdQLenPdf::25                      0                       # What read queue length does an incoming req see
system.mem_ctrls.rdQLenPdf::26                      0                       # What read queue length does an incoming req see
system.mem_ctrls.rdQLenPdf::27                      0                       # What read queue length does an incoming req see
system.mem_ctrls.rdQLenPdf::28                      0                       # What read queue length does an incoming req see
system.mem_ctrls.rdQLenPdf::29                      0                       # What read queue length does an incoming req see
system.mem_ctrls.rdQLenPdf::30                      0                       # What read queue length does an incoming req see
system.mem_ctrls.rdQLenPdf::31                      0                       # What read queue length does an incoming req see
system.mem_ctrls.wrQLenPdf::0                       1                       # What write queue length does an incoming req see
system.mem_ctrls.wrQLenPdf::1                       1                       # What write queue length does an incoming req see
system.mem_ctrls.wrQLenPdf::2                       1                       # What write queue length does an incoming req see
system.mem_ctrls.wrQLenPdf::3                       1                       # What write queue length does an incoming req see
system.mem_ctrls.wrQLenPdf::4                       1                       # What write queue length does an incoming req see
system.mem_ctrls.wrQLenPdf::5                       1                       # What write queue length does an incoming req see
system.mem_ctrls.wrQLenPdf::6                       1                       # What write queue length does an incoming req see
system.mem_ctrls.wrQLenPdf::7                       1                       # What write queue length does an incoming req see
system.mem_ctrls.wrQLenPdf::8                       1                       # What write queue length does an incoming req see
system.mem_ctrls.wrQLenPdf::9                       1                       # What write queue length does an incoming req see
system.mem_ctrls.wrQLenPdf::10                      1                       # What write queue length does an incoming req see
system.mem_ctrls.wrQLenPdf::11                      1                       # What write queue length does an incoming req see
system.mem_ctrls.wrQLenPdf::12                      1                       # What write queue length does an incoming req see
system.mem_ctrls.wrQLenPdf::13                      1                       # What write queue length does an incoming req see
system.mem_ctrls.wrQLenPdf::14                      1                       # What write queue length does an incoming req see
system.mem_ctrls.wrQLenPdf::15                   6791                       # What write queue length does an incoming req see
system.mem_ctrls.wrQLenPdf::16                   6800                       # What write queue length does an incoming req see
system.mem_ctrls.wrQLenPdf::17                 518771                       # What write queue length does an incoming req see
system.mem_ctrls.wrQLenPdf::18                 520890                       # What write queue length does an incoming req see
system.mem_ctrls.wrQLenPdf::19                 520888                       # What write queue length does an incoming req see
system.mem_ctrls.wrQLenPdf::20                 520890                       # What write queue length does an incoming req see
system.mem_ctrls.wrQLenPdf::21                 520890                       # What write queue length does an incoming req see
system.mem_ctrls.wrQLenPdf::22                 520883                       # What write queue length does an incoming req see
system.mem_ctrls.wrQLenPdf::23                 520888                       # What write queue length does an incoming req see
system.mem_ctrls.wrQLenPdf::24                 520890                       # What write queue length does an incoming req see
system.mem_ctrls.wrQLenPdf::25                 524219                       # What write queue length does an incoming req see
system.mem_ctrls.wrQLenPdf::26                 520887                       # What write queue length does an incoming req see
system.mem_ctrls.wrQLenPdf::27                 520908                       # What write queue length does an incoming req see
system.mem_ctrls.wrQLenPdf::28                 521006                       # What write queue length does an incoming req see
system.mem_ctrls.wrQLenPdf::29                 520885                       # What write queue length does an incoming req see
system.mem_ctrls.wrQLenPdf::30                 520884                       # What write queue length does an incoming req see
system.mem_ctrls.wrQLenPdf::31                 520883                       # What write queue length does an incoming req see
system.mem_ctrls.wrQLenPdf::32                 520882                       # What write queue length does an incoming req see
system.mem_ctrls.wrQLenPdf::33                      3                       # What write queue length does an incoming req see
system.mem_ctrls.wrQLenPdf::34                      0                       # What write queue length does an incoming req see
system.mem_ctrls.wrQLenPdf::35                      0                       # What write queue length does an incoming req see
system.mem_ctrls.wrQLenPdf::36                      0                       # What write queue length does an incoming req see
system.mem_ctrls.wrQLenPdf::37                      0                       # What write queue length does an incoming req see
system.mem_ctrls.wrQLenPdf::38                      0                       # What write queue length does an incoming req see
system.mem_ctrls.wrQLenPdf::39                      0                       # What write queue length does an incoming req see
system.mem_ctrls.wrQLenPdf::40                      0                       # What write queue length does an incoming req see
system.mem_ctrls.wrQLenPdf::41                      0                       # What write queue length does an incoming req see
system.mem_ctrls.wrQLenPdf::42                      0                       # What write queue length does an incoming req see
system.mem_ctrls.wrQLenPdf::43                      0                       # What write queue length does an incoming req see
system.mem_ctrls.wrQLenPdf::44                      0                       # What write queue length does an incoming req see
system.mem_ctrls.wrQLenPdf::45                      0                       # What write queue length does an incoming req see
system.mem_ctrls.wrQLenPdf::46                      0                       # What write queue length does an incoming req see
system.mem_ctrls.wrQLenPdf::47                      0                       # What write queue length does an incoming req see
system.mem_ctrls.wrQLenPdf::48                      0                       # What write queue length does an incoming req see
system.mem_ctrls.wrQLenPdf::49                      0                       # What write queue length does an incoming req see
system.mem_ctrls.wrQLenPdf::50                      0                       # What write queue length does an incoming req see
system.mem_ctrls.wrQLenPdf::51                      0                       # What write queue length does an incoming req see
system.mem_ctrls.wrQLenPdf::52                      0                       # What write queue length does an incoming req see
system.mem_ctrls.wrQLenPdf::53                      0                       # What write queue length does an incoming req see
system.mem_ctrls.wrQLenPdf::54                      0                       # What write queue length does an incoming req see
system.mem_ctrls.wrQLenPdf::55                      0                       # What write queue length does an incoming req see
system.mem_ctrls.wrQLenPdf::56                      0                       # What write queue length does an incoming req see
system.mem_ctrls.wrQLenPdf::57                      0                       # What write queue length does an incoming req see
system.mem_ctrls.wrQLenPdf::58                      0                       # What write queue length does an incoming req see
system.mem_ctrls.wrQLenPdf::59                      0                       # What write queue length does an incoming req see
system.mem_ctrls.wrQLenPdf::60                      0                       # What write queue length does an incoming req see
system.mem_ctrls.wrQLenPdf::61                      0                       # What write queue length does an incoming req see
system.mem_ctrls.wrQLenPdf::62                      0                       # What write queue length does an incoming req see
system.mem_ctrls.wrQLenPdf::63                      0                       # What write queue length does an incoming req see
system.mem_ctrls.bytesPerActivate::samples      1434876                       # Bytes accessed per row activation
system.mem_ctrls.bytesPerActivate::mean    747.500300                       # Bytes accessed per row activation
system.mem_ctrls.bytesPerActivate::gmean   544.179762                       # Bytes accessed per row activation
system.mem_ctrls.bytesPerActivate::stdev   380.599629                       # Bytes accessed per row activation
system.mem_ctrls.bytesPerActivate::0-127       212440     14.81%     14.81% # Bytes accessed per row activation
system.mem_ctrls.bytesPerActivate::128-255        60408      4.21%     19.02% # Bytes accessed per row activation
system.mem_ctrls.bytesPerActivate::256-383        61771      4.30%     23.32% # Bytes accessed per row activation
system.mem_ctrls.bytesPerActivate::384-511        56553      3.94%     27.26% # Bytes accessed per row activation
system.mem_ctrls.bytesPerActivate::512-639        45482      3.17%     30.43% # Bytes accessed per row activation
system.mem_ctrls.bytesPerActivate::640-767        68580      4.78%     35.21% # Bytes accessed per row activation
system.mem_ctrls.bytesPerActivate::768-895        43102      3.00%     38.21% # Bytes accessed per row activation
system.mem_ctrls.bytesPerActivate::896-1023        55010      3.83%     42.05% # Bytes accessed per row activation
system.mem_ctrls.bytesPerActivate::1024-1151       831530     57.95%    100.00% # Bytes accessed per row activation
system.mem_ctrls.bytesPerActivate::total      1434876                       # Bytes accessed per row activation
system.mem_ctrls.rdPerTurnAround::samples       520882                       # Reads before turning the bus around for writes
system.mem_ctrls.rdPerTurnAround::mean      16.145252                       # Reads before turning the bus around for writes
system.mem_ctrls.rdPerTurnAround::gmean     16.084879                       # Reads before turning the bus around for writes
system.mem_ctrls.rdPerTurnAround::stdev     10.508075                       # Reads before turning the bus around for writes
system.mem_ctrls.rdPerTurnAround::0-255        520876    100.00%    100.00% # Reads before turning the bus around for writes
system.mem_ctrls.rdPerTurnAround::256-511            1      0.00%    100.00% # Reads before turning the bus around for writes
system.mem_ctrls.rdPerTurnAround::1024-1279            1      0.00%    100.00% # Reads before turning the bus around for writes
system.mem_ctrls.rdPerTurnAround::1792-2047            1      0.00%    100.00% # Reads before turning the bus around for writes
system.mem_ctrls.rdPerTurnAround::2304-2559            1      0.00%    100.00% # Reads before turning the bus around for writes
system.mem_ctrls.rdPerTurnAround::3584-3839            1      0.00%    100.00% # Reads before turning the bus around for writes
system.mem_ctrls.rdPerTurnAround::5376-5631            1      0.00%    100.00% # Reads before turning the bus around for writes
system.mem_ctrls.rdPerTurnAround::total        520882                       # Reads before turning the bus around for writes
system.mem_ctrls.wrPerTurnAround::samples       520882                       # Writes before turning the bus around for reads
system.mem_ctrls.wrPerTurnAround::mean      16.028815                       # Writes before turning the bus around for reads
system.mem_ctrls.wrPerTurnAround::gmean     16.026964                       # Writes before turning the bus around for reads
system.mem_ctrls.wrPerTurnAround::stdev      0.254873                       # Writes before turning the bus around for reads
system.mem_ctrls.wrPerTurnAround::16           514083     98.69%     98.69% # Writes before turning the bus around for reads
system.mem_ctrls.wrPerTurnAround::17                7      0.00%     98.70% # Writes before turning the bus around for reads
system.mem_ctrls.wrPerTurnAround::18             5376      1.03%     99.73% # Writes before turning the bus around for reads
system.mem_ctrls.wrPerTurnAround::19             1414      0.27%    100.00% # Writes before turning the bus around for reads
system.mem_ctrls.wrPerTurnAround::20                2      0.00%    100.00% # Writes before turning the bus around for reads
system.mem_ctrls.wrPerTurnAround::total        520882                       # Writes before turning the bus around for reads
system.mem_ctrls.totQLat                  88770660750                       # Total ticks spent queuing
system.mem_ctrls.totMemAccLat            246454204500                       # Total ticks spent from burst creation until serviced by the DRAM
system.mem_ctrls.totBusLat                42048945000                       # Total ticks spent in databus transfers
system.mem_ctrls.avgQLat                     10555.63                       # Average queueing delay per DRAM burst
system.mem_ctrls.avgBusLat                    5000.00                       # Average bus latency per DRAM burst
system.mem_ctrls.avgMemAccLat                29305.63                       # Average memory access latency per DRAM burst
system.mem_ctrls.avgRdBW                       321.60                       # Average DRAM read bandwidth in MiByte/s
system.mem_ctrls.avgWrBW                       319.28                       # Average achieved write bandwidth in MiByte/s
system.mem_ctrls.avgRdBWSys                    321.65                       # Average system read bandwidth in MiByte/s
system.mem_ctrls.avgWrBWSys                    319.29                       # Average system write bandwidth in MiByte/s
system.mem_ctrls.peakBW                      12800.00                       # Theoretical peak bandwidth in MiByte/s
system.mem_ctrls.busUtil                         5.01                       # Data bus utilization in percentage
system.mem_ctrls.busUtilRead                     2.51                       # Data bus utilization in percentage for reads
system.mem_ctrls.busUtilWrite                    2.49                       # Data bus utilization in percentage for writes
system.mem_ctrls.avgRdQLen                       1.00                       # Average read queue length when enqueuing
system.mem_ctrls.avgWrQLen                      25.21                       # Average write queue length when enqueuing
system.mem_ctrls.readRowHits                  7624449                       # Number of row buffer hits during reads
system.mem_ctrls.writeRowHits                 7699585                       # Number of row buffer hits during writes
system.mem_ctrls.readRowHitRate                 90.66                       # Row buffer hit rate for reads
system.mem_ctrls.writeRowHitRate                92.22                       # Row buffer hit rate for writes
system.mem_ctrls.avgGap                      99853.32                       # Average gap between requests
system.mem_ctrls.pageHitRate                    91.44                       # Row buffer hit rate, read and write combined
system.mem_ctrls_0.actEnergy               5428783080                       # Energy for activate commands per rank (pJ)
system.mem_ctrls_0.preEnergy               2962133625                       # Energy for precharge commands per rank (pJ)
system.mem_ctrls_0.readEnergy             32808172800                       # Energy for read commands per rank (pJ)
system.mem_ctrls_0.writeEnergy            27055807920                       # Energy for write commands per rank (pJ)
system.mem_ctrls_0.refreshEnergy         109310903520                       # Energy for refresh commands per rank (pJ)
system.mem_ctrls_0.actBackEnergy         420107332275                       # Energy for active background per rank (pJ)
system.mem_ctrls_0.preBackEnergy         635640232500                       # Energy for precharge background per rank (pJ)
system.mem_ctrls_0.totalEnergy           1233313365720                       # Total energy per rank (pJ)
system.mem_ctrls_0.averagePower            736.925771                       # Core power per rank (mW)
system.mem_ctrls_0.memoryStateTime::IDLE 1050441202750                       # Time in different power states
system.mem_ctrls_0.memoryStateTime::REF   55884920000                       # Time in different power states
system.mem_ctrls_0.memoryStateTime::PRE_PDN            0                       # Time in different power states
system.mem_ctrls_0.memoryStateTime::ACT  567266284750                       # Time in different power states
system.mem_ctrls_0.memoryStateTime::ACT_PDN            0                       # Time in different power states
system.mem_ctrls_1.actEnergy               5418879480                       # Energy for activate commands per rank (pJ)
system.mem_ctrls_1.preEnergy               2956729875                       # Energy for precharge commands per rank (pJ)
system.mem_ctrls_1.readEnergy             32788181400                       # Energy for read commands per rank (pJ)
system.mem_ctrls_1.writeEnergy            27046496160                       # Energy for write commands per rank (pJ)
system.mem_ctrls_1.refreshEnergy         109310903520                       # Energy for refresh commands per rank (pJ)
system.mem_ctrls_1.actBackEnergy         420854788665                       # Energy for active background per rank (pJ)
system.mem_ctrls_1.preBackEnergy         634984577250                       # Energy for precharge background per rank (pJ)
system.mem_ctrls_1.totalEnergy           1233360556350                       # Total energy per rank (pJ)
system.mem_ctrls_1.averagePower            736.953963                       # Core power per rank (mW)
system.mem_ctrls_1.memoryStateTime::IDLE 1049340934750                       # Time in different power states
system.mem_ctrls_1.memoryStateTime::REF   55884920000                       # Time in different power states
system.mem_ctrls_1.memoryStateTime::PRE_PDN            0                       # Time in different power states
system.mem_ctrls_1.memoryStateTime::ACT  568366566500                       # Time in different power states
system.mem_ctrls_1.memoryStateTime::ACT_PDN            0                       # Time in different power states
system.cpu_voltage_domain.voltage                   1                       # Voltage in Volts
system.cpu_clk_domain.clock                       500                       # Clock period in ticks
system.cpu.apic_clk_domain.clock                 8000                       # Clock period in ticks
system.cpu.workload.num_syscalls                  196                       # Number of system calls
system.cpu.numCycles                       3347195839                       # number of cpu cycles simulated
system.cpu.numWorkItemsStarted                      0                       # number of work items this cpu started
system.cpu.numWorkItemsCompleted                    0                       # number of work items this cpu completed
system.cpu.committedInsts                   500000000                       # Number of instructions committed
system.cpu.committedOps                     823366688                       # Number of ops (including micro ops) committed
system.cpu.num_int_alu_accesses             821415780                       # Number of integer alu accesses
system.cpu.num_fp_alu_accesses               66619254                       # Number of float alu accesses
system.cpu.num_func_calls                     5652773                       # number of times a function call or return occured
system.cpu.num_conditional_control_insts     57208851                       # number of instructions that are conditional controls
system.cpu.num_int_insts                    821415780                       # number of integer instructions
system.cpu.num_fp_insts                      66619254                       # number of float instructions
system.cpu.num_int_register_reads          1637209921                       # number of times the integer registers were read
system.cpu.num_int_register_writes          639871071                       # number of times the integer registers were written
system.cpu.num_fp_register_reads             66766844                       # number of times the floating registers were read
system.cpu.num_fp_register_writes              208042                       # number of times the floating registers were written
system.cpu.num_cc_register_reads            319714234                       # number of times the CC registers were read
system.cpu.num_cc_register_writes           287984020                       # number of times the CC registers were written
system.cpu.num_mem_refs                     271673944                       # number of memory refs
system.cpu.num_load_insts                   157213786                       # Number of load instructions
system.cpu.num_store_insts                  114460158                       # Number of store instructions
system.cpu.num_idle_cycles                          0                       # Number of idle cycles
system.cpu.num_busy_cycles                 3347195839                       # Number of busy cycles
system.cpu.not_idle_fraction                        1                       # Percentage of non-idle cycles
system.cpu.idle_fraction                            0                       # Percentage of idle cycles
system.cpu.Branches                          69678398                       # Number of branches fetched
system.cpu.op_class::No_OpClass                202233      0.02%      0.02% # Class of executed instruction
system.cpu.op_class::IntAlu                 550028809     66.80%     66.83% # Class of executed instruction
system.cpu.op_class::IntMult                   125092      0.02%     66.84% # Class of executed instruction
system.cpu.op_class::IntDiv                   1153479      0.14%     66.98% # Class of executed instruction
system.cpu.op_class::FloatAdd                  183131      0.02%     67.00% # Class of executed instruction
system.cpu.op_class::FloatCmp                       0      0.00%     67.00% # Class of executed instruction
system.cpu.op_class::FloatCvt                       0      0.00%     67.00% # Class of executed instruction
system.cpu.op_class::FloatMult                      0      0.00%     67.00% # Class of executed instruction
system.cpu.op_class::FloatDiv                       0      0.00%     67.00% # Class of executed instruction
system.cpu.op_class::FloatSqrt                      0      0.00%     67.00% # Class of executed instruction
system.cpu.op_class::SimdAdd                        0      0.00%     67.00% # Class of executed instruction
system.cpu.op_class::SimdAddAcc                     0      0.00%     67.00% # Class of executed instruction
system.cpu.op_class::SimdAlu                        0      0.00%     67.00% # Class of executed instruction
system.cpu.op_class::SimdCmp                        0      0.00%     67.00% # Class of executed instruction
system.cpu.op_class::SimdCvt                        0      0.00%     67.00% # Class of executed instruction
system.cpu.op_class::SimdMisc                       0      0.00%     67.00% # Class of executed instruction
system.cpu.op_class::SimdMult                       0      0.00%     67.00% # Class of executed instruction
system.cpu.op_class::SimdMultAcc                    0      0.00%     67.00% # Class of executed instruction
system.cpu.op_class::SimdShift                      0      0.00%     67.00% # Class of executed instruction
system.cpu.op_class::SimdShiftAcc                   0      0.00%     67.00% # Class of executed instruction
system.cpu.op_class::SimdSqrt                       0      0.00%     67.00% # Class of executed instruction
system.cpu.op_class::SimdFloatAdd                   0      0.00%     67.00% # Class of executed instruction
system.cpu.op_class::SimdFloatAlu                   0      0.00%     67.00% # Class of executed instruction
system.cpu.op_class::SimdFloatCmp                   0      0.00%     67.00% # Class of executed instruction
system.cpu.op_class::SimdFloatCvt                   0      0.00%     67.00% # Class of executed instruction
system.cpu.op_class::SimdFloatDiv                   0      0.00%     67.00% # Class of executed instruction
system.cpu.op_class::SimdFloatMisc                  0      0.00%     67.00% # Class of executed instruction
system.cpu.op_class::SimdFloatMult                  0      0.00%     67.00% # Class of executed instruction
system.cpu.op_class::SimdFloatMultAcc               0      0.00%     67.00% # Class of executed instruction
system.cpu.op_class::SimdFloatSqrt                  0      0.00%     67.00% # Class of executed instruction
system.cpu.op_class::MemRead                157213786     19.09%     86.10% # Class of executed instruction
system.cpu.op_class::MemWrite               114460158     13.90%    100.00% # Class of executed instruction
system.cpu.op_class::IprAccess                      0      0.00%    100.00% # Class of executed instruction
system.cpu.op_class::InstPrefetch                   0      0.00%    100.00% # Class of executed instruction
system.cpu.op_class::total                  823366688                       # Class of executed instruction
system.cpu.dcache.tags.replacements           8978156                       # number of replacements
system.cpu.dcache.tags.tagsinuse          1023.501817                       # Cycle average of tags in use
system.cpu.dcache.tags.total_refs           262695367                       # Total number of references to valid blocks.
system.cpu.dcache.tags.sampled_refs           8979180                       # Sample count of references to valid blocks.
system.cpu.dcache.tags.avg_refs             29.256053                       # Average number of references to valid blocks.
system.cpu.dcache.tags.warmup_cycle        7171468500                       # Cycle when the warmup percentage was hit.
system.cpu.dcache.tags.occ_blocks::cpu.data  1023.501817                       # Average occupied blocks per requestor
system.cpu.dcache.tags.occ_percent::cpu.data     0.999513                       # Average percentage of cache occupancy
system.cpu.dcache.tags.occ_percent::total     0.999513                       # Average percentage of cache occupancy
system.cpu.dcache.tags.occ_task_id_blocks::1024         1024                       # Occupied blocks per task id
system.cpu.dcache.tags.age_task_id_blocks_1024::0            1                       # Occupied blocks per task id
system.cpu.dcache.tags.age_task_id_blocks_1024::1           42                       # Occupied blocks per task id
system.cpu.dcache.tags.age_task_id_blocks_1024::2          147                       # Occupied blocks per task id
system.cpu.dcache.tags.age_task_id_blocks_1024::3          518                       # Occupied blocks per task id
system.cpu.dcache.tags.age_task_id_blocks_1024::4          316                       # Occupied blocks per task id
system.cpu.dcache.tags.occ_task_id_percent::1024            1                       # Percentage of cache occupancy per task id
system.cpu.dcache.tags.tag_accesses         280653727                       # Number of tag accesses
system.cpu.dcache.tags.data_accesses        280653727                       # Number of data accesses
system.cpu.dcache.ReadReq_hits::cpu.data    156696192                       # number of ReadReq hits
system.cpu.dcache.ReadReq_hits::total       156696192                       # number of ReadReq hits
system.cpu.dcache.WriteReq_hits::cpu.data    105999175                       # number of WriteReq hits
system.cpu.dcache.WriteReq_hits::total      105999175                       # number of WriteReq hits
system.cpu.dcache.demand_hits::cpu.data     262695367                       # number of demand (read+write) hits
system.cpu.dcache.demand_hits::total        262695367                       # number of demand (read+write) hits
system.cpu.dcache.overall_hits::cpu.data    262695367                       # number of overall hits
system.cpu.dcache.overall_hits::total       262695367                       # number of overall hits
system.cpu.dcache.ReadReq_misses::cpu.data       518186                       # number of ReadReq misses
system.cpu.dcache.ReadReq_misses::total        518186                       # number of ReadReq misses
system.cpu.dcache.WriteReq_misses::cpu.data      8460994                       # number of WriteReq misses
system.cpu.dcache.WriteReq_misses::total      8460994                       # number of WriteReq misses
system.cpu.dcache.demand_misses::cpu.data      8979180                       # number of demand (read+write) misses
system.cpu.dcache.demand_misses::total        8979180                       # number of demand (read+write) misses
system.cpu.dcache.overall_misses::cpu.data      8979180                       # number of overall misses
system.cpu.dcache.overall_misses::total       8979180                       # number of overall misses
system.cpu.dcache.ReadReq_miss_latency::cpu.data  14623490500                       # number of ReadReq miss cycles
system.cpu.dcache.ReadReq_miss_latency::total  14623490500                       # number of ReadReq miss cycles
system.cpu.dcache.WriteReq_miss_latency::cpu.data 678095880000                       # number of WriteReq miss cycles
system.cpu.dcache.WriteReq_miss_latency::total 678095880000                       # number of WriteReq miss cycles
system.cpu.dcache.demand_miss_latency::cpu.data 692719370500                       # number of demand (read+write) miss cycles
system.cpu.dcache.demand_miss_latency::total 692719370500                       # number of demand (read+write) miss cycles
system.cpu.dcache.overall_miss_latency::cpu.data 692719370500                       # number of overall miss cycles
system.cpu.dcache.overall_miss_latency::total 692719370500                       # number of overall miss cycles
system.cpu.dcache.ReadReq_accesses::cpu.data    157214378                       # number of ReadReq accesses(hits+misses)
system.cpu.dcache.ReadReq_accesses::total    157214378                       # number of ReadReq accesses(hits+misses)
system.cpu.dcache.WriteReq_accesses::cpu.data    114460169                       # number of WriteReq accesses(hits+misses)
system.cpu.dcache.WriteReq_accesses::total    114460169                       # number of WriteReq accesses(hits+misses)
system.cpu.dcache.demand_accesses::cpu.data    271674547                       # number of demand (read+write) accesses
system.cpu.dcache.demand_accesses::total    271674547                       # number of demand (read+write) accesses
system.cpu.dcache.overall_accesses::cpu.data    271674547                       # number of overall (read+write) accesses
system.cpu.dcache.overall_accesses::total    271674547                       # number of overall (read+write) accesses
system.cpu.dcache.ReadReq_miss_rate::cpu.data     0.003296                       # miss rate for ReadReq accesses
system.cpu.dcache.ReadReq_miss_rate::total     0.003296                       # miss rate for ReadReq accesses
system.cpu.dcache.WriteReq_miss_rate::cpu.data     0.073921                       # miss rate for WriteReq accesses
system.cpu.dcache.WriteReq_miss_rate::total     0.073921                       # miss rate for WriteReq accesses
system.cpu.dcache.demand_miss_rate::cpu.data     0.033051                       # miss rate for demand accesses
system.cpu.dcache.demand_miss_rate::total     0.033051                       # miss rate for demand accesses
system.cpu.dcache.overall_miss_rate::cpu.data     0.033051                       # miss rate for overall accesses
system.cpu.dcache.overall_miss_rate::total     0.033051                       # miss rate for overall accesses
system.cpu.dcache.ReadReq_avg_miss_latency::cpu.data 28220.543396                       # average ReadReq miss latency
system.cpu.dcache.ReadReq_avg_miss_latency::total 28220.543396                       # average ReadReq miss latency
system.cpu.dcache.WriteReq_avg_miss_latency::cpu.data 80143.760887                       # average WriteReq miss latency
system.cpu.dcache.WriteReq_avg_miss_latency::total 80143.760887                       # average WriteReq miss latency
system.cpu.dcache.demand_avg_miss_latency::cpu.data 77147.286333                       # average overall miss latency
system.cpu.dcache.demand_avg_miss_latency::total 77147.286333                       # average overall miss latency
system.cpu.dcache.overall_avg_miss_latency::cpu.data 77147.286333                       # average overall miss latency
system.cpu.dcache.overall_avg_miss_latency::total 77147.286333                       # average overall miss latency
system.cpu.dcache.blocked_cycles::no_mshrs            0                       # number of cycles access was blocked
system.cpu.dcache.blocked_cycles::no_targets            0                       # number of cycles access was blocked
system.cpu.dcache.blocked::no_mshrs                 0                       # number of cycles access was blocked
system.cpu.dcache.blocked::no_targets               0                       # number of cycles access was blocked
system.cpu.dcache.avg_blocked_cycles::no_mshrs          nan                       # average number of cycles each access was blocked
system.cpu.dcache.avg_blocked_cycles::no_targets          nan                       # average number of cycles each access was blocked
system.cpu.dcache.fast_writes                       0                       # number of fast writes performed
system.cpu.dcache.cache_copies                      0                       # number of cache copies performed
system.cpu.dcache.writebacks::writebacks      8707610                       # number of writebacks
system.cpu.dcache.writebacks::total           8707610                       # number of writebacks
system.cpu.dcache.ReadReq_mshr_misses::cpu.data       518186                       # number of ReadReq MSHR misses
system.cpu.dcache.ReadReq_mshr_misses::total       518186                       # number of ReadReq MSHR misses
system.cpu.dcache.WriteReq_mshr_misses::cpu.data      8460994                       # number of WriteReq MSHR misses
system.cpu.dcache.WriteReq_mshr_misses::total      8460994                       # number of WriteReq MSHR misses
system.cpu.dcache.demand_mshr_misses::cpu.data      8979180                       # number of demand (read+write) MSHR misses
system.cpu.dcache.demand_mshr_misses::total      8979180                       # number of demand (read+write) MSHR misses
system.cpu.dcache.overall_mshr_misses::cpu.data      8979180                       # number of overall MSHR misses
system.cpu.dcache.overall_mshr_misses::total      8979180                       # number of overall MSHR misses
system.cpu.dcache.ReadReq_mshr_miss_latency::cpu.data  14105304500                       # number of ReadReq MSHR miss cycles
system.cpu.dcache.ReadReq_mshr_miss_latency::total  14105304500                       # number of ReadReq MSHR miss cycles
system.cpu.dcache.WriteReq_mshr_miss_latency::cpu.data 669634886000                       # number of WriteReq MSHR miss cycles
system.cpu.dcache.WriteReq_mshr_miss_latency::total 669634886000                       # number of WriteReq MSHR miss cycles
system.cpu.dcache.demand_mshr_miss_latency::cpu.data 683740190500                       # number of demand (read+write) MSHR miss cycles
system.cpu.dcache.demand_mshr_miss_latency::total 683740190500                       # number of demand (read+write) MSHR miss cycles
system.cpu.dcache.overall_mshr_miss_latency::cpu.data 683740190500                       # number of overall MSHR miss cycles
system.cpu.dcache.overall_mshr_miss_latency::total 683740190500                       # number of overall MSHR miss cycles
system.cpu.dcache.ReadReq_mshr_miss_rate::cpu.data     0.003296                       # mshr miss rate for ReadReq accesses
system.cpu.dcache.ReadReq_mshr_miss_rate::total     0.003296                       # mshr miss rate for ReadReq accesses
system.cpu.dcache.WriteReq_mshr_miss_rate::cpu.data     0.073921                       # mshr miss rate for WriteReq accesses
system.cpu.dcache.WriteReq_mshr_miss_rate::total     0.073921                       # mshr miss rate for WriteReq accesses
system.cpu.dcache.demand_mshr_miss_rate::cpu.data     0.033051                       # mshr miss rate for demand accesses
system.cpu.dcache.demand_mshr_miss_rate::total     0.033051                       # mshr miss rate for demand accesses
system.cpu.dcache.overall_mshr_miss_rate::cpu.data     0.033051                       # mshr miss rate for overall accesses
system.cpu.dcache.overall_mshr_miss_rate::total     0.033051                       # mshr miss rate for overall accesses
system.cpu.dcache.ReadReq_avg_mshr_miss_latency::cpu.data 27220.543396                       # average ReadReq mshr miss latency
system.cpu.dcache.ReadReq_avg_mshr_miss_latency::total 27220.543396                       # average ReadReq mshr miss latency
system.cpu.dcache.WriteReq_avg_mshr_miss_latency::cpu.data 79143.760887                       # average WriteReq mshr miss latency
system.cpu.dcache.WriteReq_avg_mshr_miss_latency::total 79143.760887                       # average WriteReq mshr miss latency
system.cpu.dcache.demand_avg_mshr_miss_latency::cpu.data 76147.286333                       # average overall mshr miss latency
system.cpu.dcache.demand_avg_mshr_miss_latency::total 76147.286333                       # average overall mshr miss latency
system.cpu.dcache.overall_avg_mshr_miss_latency::cpu.data 76147.286333                       # average overall mshr miss latency
system.cpu.dcache.overall_avg_mshr_miss_latency::total 76147.286333                       # average overall mshr miss latency
system.cpu.dcache.no_allocate_misses                0                       # Number of misses that were no-allocate
system.cpu.dtb_walker_cache.tags.replacements            0                       # number of replacements
system.cpu.dtb_walker_cache.tags.tagsinuse            0                       # Cycle average of tags in use
system.cpu.dtb_walker_cache.tags.total_refs            0                       # Total number of references to valid blocks.
system.cpu.dtb_walker_cache.tags.sampled_refs            0                       # Sample count of references to valid blocks.
system.cpu.dtb_walker_cache.tags.avg_refs          nan                       # Average number of references to valid blocks.
system.cpu.dtb_walker_cache.tags.warmup_cycle            0                       # Cycle when the warmup percentage was hit.
system.cpu.dtb_walker_cache.tags.tag_accesses            0                       # Number of tag accesses
system.cpu.dtb_walker_cache.tags.data_accesses            0                       # Number of data accesses
system.cpu.dtb_walker_cache.blocked_cycles::no_mshrs            0                       # number of cycles access was blocked
system.cpu.dtb_walker_cache.blocked_cycles::no_targets            0                       # number of cycles access was blocked
system.cpu.dtb_walker_cache.blocked::no_mshrs            0                       # number of cycles access was blocked
system.cpu.dtb_walker_cache.blocked::no_targets            0                       # number of cycles access was blocked
system.cpu.dtb_walker_cache.avg_blocked_cycles::no_mshrs          nan                       # average number of cycles each access was blocked
system.cpu.dtb_walker_cache.avg_blocked_cycles::no_targets          nan                       # average number of cycles each access was blocked
system.cpu.dtb_walker_cache.fast_writes             0                       # number of fast writes performed
system.cpu.dtb_walker_cache.cache_copies            0                       # number of cache copies performed
system.cpu.dtb_walker_cache.no_allocate_misses            0                       # Number of misses that were no-allocate
system.cpu.icache.tags.replacements           3503776                       # number of replacements
system.cpu.icache.tags.tagsinuse           438.332113                       # Cycle average of tags in use
system.cpu.icache.tags.total_refs           671849375                       # Total number of references to valid blocks.
system.cpu.icache.tags.sampled_refs           3504287                       # Sample count of references to valid blocks.
system.cpu.icache.tags.avg_refs            191.722132                       # Average number of references to valid blocks.
system.cpu.icache.tags.warmup_cycle                 0                       # Cycle when the warmup percentage was hit.
system.cpu.icache.tags.occ_blocks::cpu.inst   438.332113                       # Average occupied blocks per requestor
system.cpu.icache.tags.occ_percent::cpu.inst     0.856117                       # Average percentage of cache occupancy
system.cpu.icache.tags.occ_percent::total     0.856117                       # Average percentage of cache occupancy
system.cpu.icache.tags.occ_task_id_blocks::1024          511                       # Occupied blocks per task id
system.cpu.icache.tags.age_task_id_blocks_1024::0            9                       # Occupied blocks per task id
system.cpu.icache.tags.age_task_id_blocks_1024::1          107                       # Occupied blocks per task id
system.cpu.icache.tags.age_task_id_blocks_1024::2           29                       # Occupied blocks per task id
system.cpu.icache.tags.age_task_id_blocks_1024::3           12                       # Occupied blocks per task id
system.cpu.icache.tags.age_task_id_blocks_1024::4          354                       # Occupied blocks per task id
system.cpu.icache.tags.occ_task_id_percent::1024     0.998047                       # Percentage of cache occupancy per task id
system.cpu.icache.tags.tag_accesses         678857949                       # Number of tag accesses
system.cpu.icache.tags.data_accesses        678857949                       # Number of data accesses
system.cpu.icache.ReadReq_hits::cpu.inst    671849375                       # number of ReadReq hits
system.cpu.icache.ReadReq_hits::total       671849375                       # number of ReadReq hits
system.cpu.icache.demand_hits::cpu.inst     671849375                       # number of demand (read+write) hits
system.cpu.icache.demand_hits::total        671849375                       # number of demand (read+write) hits
system.cpu.icache.overall_hits::cpu.inst    671849375                       # number of overall hits
system.cpu.icache.overall_hits::total       671849375                       # number of overall hits
system.cpu.icache.ReadReq_misses::cpu.inst      3504287                       # number of ReadReq misses
system.cpu.icache.ReadReq_misses::total       3504287                       # number of ReadReq misses
system.cpu.icache.demand_misses::cpu.inst      3504287                       # number of demand (read+write) misses
system.cpu.icache.demand_misses::total        3504287                       # number of demand (read+write) misses
system.cpu.icache.overall_misses::cpu.inst      3504287                       # number of overall misses
system.cpu.icache.overall_misses::total       3504287                       # number of overall misses
system.cpu.icache.ReadReq_miss_latency::cpu.inst  46334224500                       # number of ReadReq miss cycles
system.cpu.icache.ReadReq_miss_latency::total  46334224500                       # number of ReadReq miss cycles
system.cpu.icache.demand_miss_latency::cpu.inst  46334224500                       # number of demand (read+write) miss cycles
system.cpu.icache.demand_miss_latency::total  46334224500                       # number of demand (read+write) miss cycles
system.cpu.icache.overall_miss_latency::cpu.inst  46334224500                       # number of overall miss cycles
system.cpu.icache.overall_miss_latency::total  46334224500                       # number of overall miss cycles
system.cpu.icache.ReadReq_accesses::cpu.inst    675353662                       # number of ReadReq accesses(hits+misses)
system.cpu.icache.ReadReq_accesses::total    675353662                       # number of ReadReq accesses(hits+misses)
system.cpu.icache.demand_accesses::cpu.inst    675353662                       # number of demand (read+write) accesses
system.cpu.icache.demand_accesses::total    675353662                       # number of demand (read+write) accesses
system.cpu.icache.overall_accesses::cpu.inst    675353662                       # number of overall (read+write) accesses
system.cpu.icache.overall_accesses::total    675353662                       # number of overall (read+write) accesses
system.cpu.icache.ReadReq_miss_rate::cpu.inst     0.005189                       # miss rate for ReadReq accesses
system.cpu.icache.ReadReq_miss_rate::total     0.005189                       # miss rate for ReadReq accesses
system.cpu.icache.demand_miss_rate::cpu.inst     0.005189                       # miss rate for demand accesses
system.cpu.icache.demand_miss_rate::total     0.005189                       # miss rate for demand accesses
system.cpu.icache.overall_miss_rate::cpu.inst     0.005189                       # miss rate for overall accesses
system.cpu.icache.overall_miss_rate::total     0.005189                       # miss rate for overall accesses
system.cpu.icache.ReadReq_avg_miss_latency::cpu.inst 13222.154607                       # average ReadReq miss latency
system.cpu.icache.ReadReq_avg_miss_latency::total 13222.154607                       # average ReadReq miss latency
system.cpu.icache.demand_avg_miss_latency::cpu.inst 13222.154607                       # average overall miss latency
system.cpu.icache.demand_avg_miss_latency::total 13222.154607                       # average overall miss latency
system.cpu.icache.overall_avg_miss_latency::cpu.inst 13222.154607                       # average overall miss latency
system.cpu.icache.overall_avg_miss_latency::total 13222.154607                       # average overall miss latency
system.cpu.icache.blocked_cycles::no_mshrs            0                       # number of cycles access was blocked
system.cpu.icache.blocked_cycles::no_targets            0                       # number of cycles access was blocked
system.cpu.icache.blocked::no_mshrs                 0                       # number of cycles access was blocked
system.cpu.icache.blocked::no_targets               0                       # number of cycles access was blocked
system.cpu.icache.avg_blocked_cycles::no_mshrs          nan                       # average number of cycles each access was blocked
system.cpu.icache.avg_blocked_cycles::no_targets          nan                       # average number of cycles each access was blocked
system.cpu.icache.fast_writes                       0                       # number of fast writes performed
system.cpu.icache.cache_copies                      0                       # number of cache copies performed
system.cpu.icache.writebacks::writebacks      3503776                       # number of writebacks
system.cpu.icache.writebacks::total           3503776                       # number of writebacks
system.cpu.icache.ReadReq_mshr_misses::cpu.inst      3504287                       # number of ReadReq MSHR misses
system.cpu.icache.ReadReq_mshr_misses::total      3504287                       # number of ReadReq MSHR misses
system.cpu.icache.demand_mshr_misses::cpu.inst      3504287                       # number of demand (read+write) MSHR misses
system.cpu.icache.demand_mshr_misses::total      3504287                       # number of demand (read+write) MSHR misses
system.cpu.icache.overall_mshr_misses::cpu.inst      3504287                       # number of overall MSHR misses
system.cpu.icache.overall_mshr_misses::total      3504287                       # number of overall MSHR misses
system.cpu.icache.ReadReq_mshr_miss_latency::cpu.inst  42829937500                       # number of ReadReq MSHR miss cycles
system.cpu.icache.ReadReq_mshr_miss_latency::total  42829937500                       # number of ReadReq MSHR miss cycles
system.cpu.icache.demand_mshr_miss_latency::cpu.inst  42829937500                       # number of demand (read+write) MSHR miss cycles
system.cpu.icache.demand_mshr_miss_latency::total  42829937500                       # number of demand (read+write) MSHR miss cycles
system.cpu.icache.overall_mshr_miss_latency::cpu.inst  42829937500                       # number of overall MSHR miss cycles
system.cpu.icache.overall_mshr_miss_latency::total  42829937500                       # number of overall MSHR miss cycles
system.cpu.icache.ReadReq_mshr_miss_rate::cpu.inst     0.005189                       # mshr miss rate for ReadReq accesses
system.cpu.icache.ReadReq_mshr_miss_rate::total     0.005189                       # mshr miss rate for ReadReq accesses
system.cpu.icache.demand_mshr_miss_rate::cpu.inst     0.005189                       # mshr miss rate for demand accesses
system.cpu.icache.demand_mshr_miss_rate::total     0.005189                       # mshr miss rate for demand accesses
system.cpu.icache.overall_mshr_miss_rate::cpu.inst     0.005189                       # mshr miss rate for overall accesses
system.cpu.icache.overall_mshr_miss_rate::total     0.005189                       # mshr miss rate for overall accesses
system.cpu.icache.ReadReq_avg_mshr_miss_latency::cpu.inst 12222.154607                       # average ReadReq mshr miss latency
system.cpu.icache.ReadReq_avg_mshr_miss_latency::total 12222.154607                       # average ReadReq mshr miss latency
system.cpu.icache.demand_avg_mshr_miss_latency::cpu.inst 12222.154607                       # average overall mshr miss latency
system.cpu.icache.demand_avg_mshr_miss_latency::total 12222.154607                       # average overall mshr miss latency
system.cpu.icache.overall_avg_mshr_miss_latency::cpu.inst 12222.154607                       # average overall mshr miss latency
system.cpu.icache.overall_avg_mshr_miss_latency::total 12222.154607                       # average overall mshr miss latency
system.cpu.icache.no_allocate_misses                0                       # Number of misses that were no-allocate
system.cpu.itb_walker_cache.tags.replacements            0                       # number of replacements
system.cpu.itb_walker_cache.tags.tagsinuse            0                       # Cycle average of tags in use
system.cpu.itb_walker_cache.tags.total_refs            0                       # Total number of references to valid blocks.
system.cpu.itb_walker_cache.tags.sampled_refs            0                       # Sample count of references to valid blocks.
system.cpu.itb_walker_cache.tags.avg_refs          nan                       # Average number of references to valid blocks.
system.cpu.itb_walker_cache.tags.warmup_cycle            0                       # Cycle when the warmup percentage was hit.
system.cpu.itb_walker_cache.tags.tag_accesses            0                       # Number of tag accesses
system.cpu.itb_walker_cache.tags.data_accesses            0                       # Number of data accesses
system.cpu.itb_walker_cache.blocked_cycles::no_mshrs            0                       # number of cycles access was blocked
system.cpu.itb_walker_cache.blocked_cycles::no_targets            0                       # number of cycles access was blocked
system.cpu.itb_walker_cache.blocked::no_mshrs            0                       # number of cycles access was blocked
system.cpu.itb_walker_cache.blocked::no_targets            0                       # number of cycles access was blocked
system.cpu.itb_walker_cache.avg_blocked_cycles::no_mshrs          nan                       # average number of cycles each access was blocked
system.cpu.itb_walker_cache.avg_blocked_cycles::no_targets          nan                       # average number of cycles each access was blocked
system.cpu.itb_walker_cache.fast_writes             0                       # number of fast writes performed
system.cpu.itb_walker_cache.cache_copies            0                       # number of cache copies performed
system.cpu.itb_walker_cache.no_allocate_misses            0                       # Number of misses that were no-allocate
system.l2.tags.replacements                   8436681                       # number of replacements
system.l2.tags.tagsinuse                 15709.832386                       # Cycle average of tags in use
system.l2.tags.total_refs                     8017681                       # Total number of references to valid blocks.
system.l2.tags.sampled_refs                   8452893                       # Sample count of references to valid blocks.
system.l2.tags.avg_refs                      0.948513                       # Average number of references to valid blocks.
system.l2.tags.warmup_cycle                         0                       # Cycle when the warmup percentage was hit.
system.l2.tags.occ_blocks::writebacks    10360.315039                       # Average occupied blocks per requestor
system.l2.tags.occ_blocks::cpu.inst        251.443486                       # Average occupied blocks per requestor
system.l2.tags.occ_blocks::cpu.data       5098.073861                       # Average occupied blocks per requestor
system.l2.tags.occ_percent::writebacks       0.632343                       # Average percentage of cache occupancy
system.l2.tags.occ_percent::cpu.inst         0.015347                       # Average percentage of cache occupancy
system.l2.tags.occ_percent::cpu.data         0.311162                       # Average percentage of cache occupancy
system.l2.tags.occ_percent::total            0.958852                       # Average percentage of cache occupancy
system.l2.tags.occ_task_id_blocks::1024         16212                       # Occupied blocks per task id
system.l2.tags.age_task_id_blocks_1024::1           21                       # Occupied blocks per task id
system.l2.tags.age_task_id_blocks_1024::2          126                       # Occupied blocks per task id
system.l2.tags.age_task_id_blocks_1024::3          908                       # Occupied blocks per task id
system.l2.tags.age_task_id_blocks_1024::4        15157                       # Occupied blocks per task id
system.l2.tags.occ_task_id_percent::1024     0.989502                       # Percentage of cache occupancy per task id
system.l2.tags.tag_accesses                  41879285                       # Number of tag accesses
system.l2.tags.data_accesses                 41879285                       # Number of data accesses
system.l2.WritebackDirty_hits::writebacks      8707610                       # number of WritebackDirty hits
system.l2.WritebackDirty_hits::total          8707610                       # number of WritebackDirty hits
system.l2.WritebackClean_hits::writebacks      3503776                       # number of WritebackClean hits
system.l2.WritebackClean_hits::total          3503776                       # number of WritebackClean hits
system.l2.ReadExReq_hits::cpu.data             162853                       # number of ReadExReq hits
system.l2.ReadExReq_hits::total                162853                       # number of ReadExReq hits
system.l2.ReadCleanReq_hits::cpu.inst         3494568                       # number of ReadCleanReq hits
system.l2.ReadCleanReq_hits::total            3494568                       # number of ReadCleanReq hits
system.l2.ReadSharedReq_hits::cpu.data         414998                       # number of ReadSharedReq hits
system.l2.ReadSharedReq_hits::total            414998                       # number of ReadSharedReq hits
system.l2.demand_hits::cpu.inst               3494568                       # number of demand (read+write) hits
system.l2.demand_hits::cpu.data                577851                       # number of demand (read+write) hits
system.l2.demand_hits::total                  4072419                       # number of demand (read+write) hits
system.l2.overall_hits::cpu.inst              3494568                       # number of overall hits
system.l2.overall_hits::cpu.data               577851                       # number of overall hits
system.l2.overall_hits::total                 4072419                       # number of overall hits
system.l2.ReadExReq_misses::cpu.data          8298141                       # number of ReadExReq misses
system.l2.ReadExReq_misses::total             8298141                       # number of ReadExReq misses
system.l2.ReadCleanReq_misses::cpu.inst          9719                       # number of ReadCleanReq misses
system.l2.ReadCleanReq_misses::total             9719                       # number of ReadCleanReq misses
system.l2.ReadSharedReq_misses::cpu.data       103188                       # number of ReadSharedReq misses
system.l2.ReadSharedReq_misses::total          103188                       # number of ReadSharedReq misses
system.l2.demand_misses::cpu.inst                9719                       # number of demand (read+write) misses
system.l2.demand_misses::cpu.data             8401329                       # number of demand (read+write) misses
system.l2.demand_misses::total                8411048                       # number of demand (read+write) misses
system.l2.overall_misses::cpu.inst               9719                       # number of overall misses
system.l2.overall_misses::cpu.data            8401329                       # number of overall misses
system.l2.overall_misses::total               8411048                       # number of overall misses
system.l2.ReadExReq_miss_latency::cpu.data 655227921000                       # number of ReadExReq miss cycles
system.l2.ReadExReq_miss_latency::total  655227921000                       # number of ReadExReq miss cycles
system.l2.ReadCleanReq_miss_latency::cpu.inst    824212000                       # number of ReadCleanReq miss cycles
system.l2.ReadCleanReq_miss_latency::total    824212000                       # number of ReadCleanReq miss cycles
system.l2.ReadSharedReq_miss_latency::cpu.data   8967421500                       # number of ReadSharedReq miss cycles
system.l2.ReadSharedReq_miss_latency::total   8967421500                       # number of ReadSharedReq miss cycles
system.l2.demand_miss_latency::cpu.inst     824212000                       # number of demand (read+write) miss cycles
system.l2.demand_miss_latency::cpu.data  664195342500                       # number of demand (read+write) miss cycles
system.l2.demand_miss_latency::total     665019554500                       # number of demand (read+write) miss cycles
system.l2.overall_miss_latency::cpu.inst    824212000                       # number of overall miss cycles
system.l2.overall_miss_latency::cpu.data 664195342500                       # number of overall miss cycles
system.l2.overall_miss_latency::total    665019554500                       # number of overall miss cycles
system.l2.WritebackDirty_accesses::writebacks      8707610                       # number of WritebackDirty accesses(hits+misses)
system.l2.WritebackDirty_accesses::total      8707610                       # number of WritebackDirty accesses(hits+misses)
system.l2.WritebackClean_accesses::writebacks      3503776                       # number of WritebackClean accesses(hits+misses)
system.l2.WritebackClean_accesses::total      3503776                       # number of WritebackClean accesses(hits+misses)
system.l2.ReadExReq_accesses::cpu.data        8460994                       # number of ReadExReq accesses(hits+misses)
system.l2.ReadExReq_accesses::total           8460994                       # number of ReadExReq accesses(hits+misses)
system.l2.ReadCleanReq_accesses::cpu.inst      3504287                       # number of ReadCleanReq accesses(hits+misses)
system.l2.ReadCleanReq_accesses::total        3504287                       # number of ReadCleanReq accesses(hits+misses)
system.l2.ReadSharedReq_accesses::cpu.data       518186                       # number of ReadSharedReq accesses(hits+misses)
system.l2.ReadSharedReq_accesses::total        518186                       # number of ReadSharedReq accesses(hits+misses)
system.l2.demand_accesses::cpu.inst           3504287                       # number of demand (read+write) accesses
system.l2.demand_accesses::cpu.data           8979180                       # number of demand (read+write) accesses
system.l2.demand_accesses::total             12483467                       # number of demand (read+write) accesses
system.l2.overall_accesses::cpu.inst          3504287                       # number of overall (read+write) accesses
system.l2.overall_accesses::cpu.data          8979180                       # number of overall (read+write) accesses
system.l2.overall_accesses::total            12483467                       # number of overall (read+write) accesses
system.l2.ReadExReq_miss_rate::cpu.data      0.980752                       # miss rate for ReadExReq accesses
system.l2.ReadExReq_miss_rate::total         0.980752                       # miss rate for ReadExReq accesses
system.l2.ReadCleanReq_miss_rate::cpu.inst     0.002773                       # miss rate for ReadCleanReq accesses
system.l2.ReadCleanReq_miss_rate::total      0.002773                       # miss rate for ReadCleanReq accesses
system.l2.ReadSharedReq_miss_rate::cpu.data     0.199133                       # miss rate for ReadSharedReq accesses
system.l2.ReadSharedReq_miss_rate::total     0.199133                       # miss rate for ReadSharedReq accesses
system.l2.demand_miss_rate::cpu.inst         0.002773                       # miss rate for demand accesses
system.l2.demand_miss_rate::cpu.data         0.935645                       # miss rate for demand accesses
system.l2.demand_miss_rate::total            0.673775                       # miss rate for demand accesses
system.l2.overall_miss_rate::cpu.inst        0.002773                       # miss rate for overall accesses
system.l2.overall_miss_rate::cpu.data        0.935645                       # miss rate for overall accesses
system.l2.overall_miss_rate::total           0.673775                       # miss rate for overall accesses
system.l2.ReadExReq_avg_miss_latency::cpu.data 78960.808330                       # average ReadExReq miss latency
system.l2.ReadExReq_avg_miss_latency::total 78960.808330                       # average ReadExReq miss latency
system.l2.ReadCleanReq_avg_miss_latency::cpu.inst 84804.197963                       # average ReadCleanReq miss latency
system.l2.ReadCleanReq_avg_miss_latency::total 84804.197963                       # average ReadCleanReq miss latency
system.l2.ReadSharedReq_avg_miss_latency::cpu.data 86903.724270                       # average ReadSharedReq miss latency
system.l2.ReadSharedReq_avg_miss_latency::total 86903.724270                       # average ReadSharedReq miss latency
system.l2.demand_avg_miss_latency::cpu.inst 84804.197963                       # average overall miss latency
system.l2.demand_avg_miss_latency::cpu.data 79058.365944                       # average overall miss latency
system.l2.demand_avg_miss_latency::total 79065.005276                       # average overall miss latency
system.l2.overall_avg_miss_latency::cpu.inst 84804.197963                       # average overall miss latency
system.l2.overall_avg_miss_latency::cpu.data 79058.365944                       # average overall miss latency
system.l2.overall_avg_miss_latency::total 79065.005276                       # average overall miss latency
system.l2.blocked_cycles::no_mshrs                  0                       # number of cycles access was blocked
system.l2.blocked_cycles::no_targets                0                       # number of cycles access was blocked
system.l2.blocked::no_mshrs                         0                       # number of cycles access was blocked
system.l2.blocked::no_targets                       0                       # number of cycles access was blocked
system.l2.avg_blocked_cycles::no_mshrs            nan                       # average number of cycles each access was blocked
system.l2.avg_blocked_cycles::no_targets          nan                       # average number of cycles each access was blocked
system.l2.fast_writes                               0                       # number of fast writes performed
system.l2.cache_copies                              0                       # number of cache copies performed
system.l2.writebacks::writebacks              8349385                       # number of writebacks
system.l2.writebacks::total                   8349385                       # number of writebacks
system.l2.CleanEvict_mshr_misses::writebacks        21111                       # number of CleanEvict MSHR misses
system.l2.CleanEvict_mshr_misses::total         21111                       # number of CleanEvict MSHR misses
system.l2.ReadExReq_mshr_misses::cpu.data      8298141                       # number of ReadExReq MSHR misses
system.l2.ReadExReq_mshr_misses::total        8298141                       # number of ReadExReq MSHR misses
system.l2.ReadCleanReq_mshr_misses::cpu.inst         9719                       # number of ReadCleanReq MSHR misses
system.l2.ReadCleanReq_mshr_misses::total         9719                       # number of ReadCleanReq MSHR misses
system.l2.ReadSharedReq_mshr_misses::cpu.data       103188                       # number of ReadSharedReq MSHR misses
system.l2.ReadSharedReq_mshr_misses::total       103188                       # number of ReadSharedReq MSHR misses
system.l2.demand_mshr_misses::cpu.inst           9719                       # number of demand (read+write) MSHR misses
system.l2.demand_mshr_misses::cpu.data        8401329                       # number of demand (read+write) MSHR misses
system.l2.demand_mshr_misses::total           8411048                       # number of demand (read+write) MSHR misses
system.l2.overall_mshr_misses::cpu.inst          9719                       # number of overall MSHR misses
system.l2.overall_mshr_misses::cpu.data       8401329                       # number of overall MSHR misses
system.l2.overall_mshr_misses::total          8411048                       # number of overall MSHR misses
system.l2.ReadExReq_mshr_miss_latency::cpu.data 572246511000                       # number of ReadExReq MSHR miss cycles
system.l2.ReadExReq_mshr_miss_latency::total 572246511000                       # number of ReadExReq MSHR miss cycles
system.l2.ReadCleanReq_mshr_miss_latency::cpu.inst    727022000                       # number of ReadCleanReq MSHR miss cycles
system.l2.ReadCleanReq_mshr_miss_latency::total    727022000                       # number of ReadCleanReq MSHR miss cycles
system.l2.ReadSharedReq_mshr_miss_latency::cpu.data   7935541500                       # number of ReadSharedReq MSHR miss cycles
system.l2.ReadSharedReq_mshr_miss_latency::total   7935541500                       # number of ReadSharedReq MSHR miss cycles
system.l2.demand_mshr_miss_latency::cpu.inst    727022000                       # number of demand (read+write) MSHR miss cycles
system.l2.demand_mshr_miss_latency::cpu.data 580182052500                       # number of demand (read+write) MSHR miss cycles
system.l2.demand_mshr_miss_latency::total 580909074500                       # number of demand (read+write) MSHR miss cycles
system.l2.overall_mshr_miss_latency::cpu.inst    727022000                       # number of overall MSHR miss cycles
system.l2.overall_mshr_miss_latency::cpu.data 580182052500                       # number of overall MSHR miss cycles
system.l2.overall_mshr_miss_latency::total 580909074500                       # number of overall MSHR miss cycles
system.l2.CleanEvict_mshr_miss_rate::writebacks          inf                       # mshr miss rate for CleanEvict accesses
system.l2.CleanEvict_mshr_miss_rate::total          inf                       # mshr miss rate for CleanEvict accesses
system.l2.ReadExReq_mshr_miss_rate::cpu.data     0.980752                       # mshr miss rate for ReadExReq accesses
system.l2.ReadExReq_mshr_miss_rate::total     0.980752                       # mshr miss rate for ReadExReq accesses
system.l2.ReadCleanReq_mshr_miss_rate::cpu.inst     0.002773                       # mshr miss rate for ReadCleanReq accesses
system.l2.ReadCleanReq_mshr_miss_rate::total     0.002773                       # mshr miss rate for ReadCleanReq accesses
system.l2.ReadSharedReq_mshr_miss_rate::cpu.data     0.199133                       # mshr miss rate for ReadSharedReq accesses
system.l2.ReadSharedReq_mshr_miss_rate::total     0.199133                       # mshr miss rate for ReadSharedReq accesses
system.l2.demand_mshr_miss_rate::cpu.inst     0.002773                       # mshr miss rate for demand accesses
system.l2.demand_mshr_miss_rate::cpu.data     0.935645                       # mshr miss rate for demand accesses
system.l2.demand_mshr_miss_rate::total       0.673775                       # mshr miss rate for demand accesses
system.l2.overall_mshr_miss_rate::cpu.inst     0.002773                       # mshr miss rate for overall accesses
system.l2.overall_mshr_miss_rate::cpu.data     0.935645                       # mshr miss rate for overall accesses
system.l2.overall_mshr_miss_rate::total      0.673775                       # mshr miss rate for overall accesses
system.l2.ReadExReq_avg_mshr_miss_latency::cpu.data 68960.808330                       # average ReadExReq mshr miss latency
system.l2.ReadExReq_avg_mshr_miss_latency::total 68960.808330                       # average ReadExReq mshr miss latency
system.l2.ReadCleanReq_avg_mshr_miss_latency::cpu.inst 74804.197963                       # average ReadCleanReq mshr miss latency
system.l2.ReadCleanReq_avg_mshr_miss_latency::total 74804.197963                       # average ReadCleanReq mshr miss latency
system.l2.ReadSharedReq_avg_mshr_miss_latency::cpu.data 76903.724270                       # average ReadSharedReq mshr miss latency
system.l2.ReadSharedReq_avg_mshr_miss_latency::total 76903.724270                       # average ReadSharedReq mshr miss latency
system.l2.demand_avg_mshr_miss_latency::cpu.inst 74804.197963                       # average overall mshr miss latency
system.l2.demand_avg_mshr_miss_latency::cpu.data 69058.365944                       # average overall mshr miss latency
system.l2.demand_avg_mshr_miss_latency::total 69065.005276                       # average overall mshr miss latency
system.l2.overall_avg_mshr_miss_latency::cpu.inst 74804.197963                       # average overall mshr miss latency
system.l2.overall_avg_mshr_miss_latency::cpu.data 69058.365944                       # average overall mshr miss latency
system.l2.overall_avg_mshr_miss_latency::total 69065.005276                       # average overall mshr miss latency
system.l2.no_allocate_misses                        0                       # Number of misses that were no-allocate
system.membus.trans_dist::ReadResp             112907                       # Transaction distribution
system.membus.trans_dist::WritebackDirty      8349385                       # Transaction distribution
system.membus.trans_dist::CleanEvict            44960                       # Transaction distribution
system.membus.trans_dist::ReadExReq           8298141                       # Transaction distribution
system.membus.trans_dist::ReadExResp          8298141                       # Transaction distribution
system.membus.trans_dist::ReadSharedReq        112907                       # Transaction distribution
system.membus.pkt_count_system.l2.mem_side::system.mem_ctrls.port     25216441                       # Packet count per connected master and slave (bytes)
system.membus.pkt_count_system.l2.mem_side::total     25216441                       # Packet count per connected master and slave (bytes)
system.membus.pkt_count::total               25216441                       # Packet count per connected master and slave (bytes)
system.membus.pkt_size_system.l2.mem_side::system.mem_ctrls.port   1072667712                       # Cumulative packet size per connected master and slave (bytes)
system.membus.pkt_size_system.l2.mem_side::total   1072667712                       # Cumulative packet size per connected master and slave (bytes)
system.membus.pkt_size::total              1072667712                       # Cumulative packet size per connected master and slave (bytes)
system.membus.snoops                                0                       # Total snoops (count)
system.membus.snoop_fanout::samples          16805393                       # Request fanout histogram
system.membus.snoop_fanout::mean                    0                       # Request fanout histogram
system.membus.snoop_fanout::stdev                   0                       # Request fanout histogram
system.membus.snoop_fanout::underflows              0      0.00%      0.00% # Request fanout histogram
system.membus.snoop_fanout::0                16805393    100.00%    100.00% # Request fanout histogram
system.membus.snoop_fanout::1                       0      0.00%    100.00% # Request fanout histogram
system.membus.snoop_fanout::overflows               0      0.00%    100.00% # Request fanout histogram
system.membus.snoop_fanout::min_value               0                       # Request fanout histogram
system.membus.snoop_fanout::max_value               0                       # Request fanout histogram
system.membus.snoop_fanout::total            16805393                       # Request fanout histogram
system.membus.reqLayer2.occupancy         50222274000                       # Layer occupancy (ticks)
system.membus.reqLayer2.utilization               3.0                       # Layer utilization (%)
system.membus.respLayer1.occupancy        44267935750                       # Layer occupancy (ticks)
system.membus.respLayer1.utilization              2.6                       # Layer utilization (%)
system.tol2bus.snoop_filter.tot_requests     24965399                       # Total number of requests made to the snoop filter.
system.tol2bus.snoop_filter.hit_single_requests     12481932                       # Number of requests hitting in the snoop filter with a single holder of the requested data.
system.tol2bus.snoop_filter.hit_multi_requests            1                       # Number of requests hitting in the snoop filter with multiple (>1) holders of the requested data.
system.tol2bus.snoop_filter.tot_snoops          63447                       # Total number of snoops made to the snoop filter.
system.tol2bus.snoop_filter.hit_single_snoops        63446                       # Number of snoops hitting in the snoop filter with a single holder of the requested data.
system.tol2bus.snoop_filter.hit_multi_snoops            1                       # Number of snoops hitting in the snoop filter with multiple (>1) holders of the requested data.
system.tol2bus.trans_dist::ReadResp           4022473                       # Transaction distribution
system.tol2bus.trans_dist::WritebackDirty     17056995                       # Transaction distribution
system.tol2bus.trans_dist::WritebackClean      3503776                       # Transaction distribution
system.tol2bus.trans_dist::CleanEvict          357841                       # Transaction distribution
system.tol2bus.trans_dist::ReadExReq          8460994                       # Transaction distribution
system.tol2bus.trans_dist::ReadExResp         8460994                       # Transaction distribution
system.tol2bus.trans_dist::ReadCleanReq       3504287                       # Transaction distribution
system.tol2bus.trans_dist::ReadSharedReq       518186                       # Transaction distribution
system.tol2bus.pkt_count_system.cpu.icache.mem_side::system.l2.cpu_side     10512350                       # Packet count per connected master and slave (bytes)
system.tol2bus.pkt_count_system.cpu.dcache.mem_side::system.l2.cpu_side     26936515                       # Packet count per connected master and slave (bytes)
system.tol2bus.pkt_count::total              37448865                       # Packet count per connected master and slave (bytes)
system.tol2bus.pkt_size_system.cpu.icache.mem_side::system.l2.cpu_side    448516032                       # Cumulative packet size per connected master and slave (bytes)
system.tol2bus.pkt_size_system.cpu.dcache.mem_side::system.l2.cpu_side   1131954560                       # Cumulative packet size per connected master and slave (bytes)
system.tol2bus.pkt_size::total             1580470592                       # Cumulative packet size per connected master and slave (bytes)
system.tol2bus.snoops                         8436681                       # Total snoops (count)
system.tol2bus.snoop_fanout::samples         20920148                       # Request fanout histogram
system.tol2bus.snoop_fanout::mean            0.003033                       # Request fanout histogram
system.tol2bus.snoop_fanout::stdev           0.054989                       # Request fanout histogram
system.tol2bus.snoop_fanout::underflows             0      0.00%      0.00% # Request fanout histogram
system.tol2bus.snoop_fanout::0               20856700     99.70%     99.70% # Request fanout histogram
system.tol2bus.snoop_fanout::1                  63447      0.30%    100.00% # Request fanout histogram
system.tol2bus.snoop_fanout::2                      1      0.00%    100.00% # Request fanout histogram
system.tol2bus.snoop_fanout::3                      0      0.00%    100.00% # Request fanout histogram
system.tol2bus.snoop_fanout::4                      0      0.00%    100.00% # Request fanout histogram
system.tol2bus.snoop_fanout::overflows              0      0.00%    100.00% # Request fanout histogram
system.tol2bus.snoop_fanout::min_value              0                       # Request fanout histogram
system.tol2bus.snoop_fanout::max_value              2                       # Request fanout histogram
system.tol2bus.snoop_fanout::total           20920148                       # Request fanout histogram
system.tol2bus.reqLayer0.occupancy        24694085500                       # Layer occupancy (ticks)
system.tol2bus.reqLayer0.utilization              1.5                       # Layer utilization (%)
system.tol2bus.respLayer0.occupancy        5256430500                       # Layer occupancy (ticks)
system.tol2bus.respLayer0.utilization             0.3                       # Layer utilization (%)
system.tol2bus.respLayer1.occupancy       13468770000                       # Layer occupancy (ticks)
system.tol2bus.respLayer1.utilization             0.8                       # Layer utilization (%)

---------- End Simulation Statistics   ----------
