
---------- Begin Simulation Statistics ----------
sim_seconds                                  1.888364                       # Number of seconds simulated
sim_ticks                                1888363571500                       # Number of ticks simulated
final_tick                               1888363571500                       # Number of ticks from beginning of simulation (restored from checkpoints and never reset)
sim_freq                                 1000000000000                       # Frequency of simulated ticks
host_inst_rate                                 176210                       # Simulator instruction rate (inst/s)
host_op_rate                                   308830                       # Simulator op (including micro ops) rate (op/s)
host_tick_rate                              665495824                       # Simulator tick rate (ticks/s)
host_mem_usage                                 823996                       # Number of bytes of host memory used
host_seconds                                  2837.53                       # Real time elapsed on the host
sim_insts                                   500000000                       # Number of instructions simulated
sim_ops                                     876313783                       # Number of ops (including micro ops) simulated
system.voltage_domain.voltage                       1                       # Voltage in Volts
system.clk_domain.clock                          1000                       # Clock period in ticks
system.mem_ctrls.bytes_read::cpu.inst           41312                       # Number of bytes read from this memory
system.mem_ctrls.bytes_read::cpu.data       330166240                       # Number of bytes read from this memory
system.mem_ctrls.bytes_read::total          330207552                       # Number of bytes read from this memory
system.mem_ctrls.bytes_inst_read::cpu.inst        41312                       # Number of instructions bytes read from this memory
system.mem_ctrls.bytes_inst_read::total         41312                       # Number of instructions bytes read from this memory
system.mem_ctrls.bytes_written::writebacks     40544576                       # Number of bytes written to this memory
system.mem_ctrls.bytes_written::total        40544576                       # Number of bytes written to this memory
system.mem_ctrls.num_reads::cpu.inst             1291                       # Number of read requests responded to by this memory
system.mem_ctrls.num_reads::cpu.data         10317695                       # Number of read requests responded to by this memory
system.mem_ctrls.num_reads::total            10318986                       # Number of read requests responded to by this memory
system.mem_ctrls.num_writes::writebacks       1267018                       # Number of write requests responded to by this memory
system.mem_ctrls.num_writes::total            1267018                       # Number of write requests responded to by this memory
system.mem_ctrls.bw_read::cpu.inst              21877                       # Total read bandwidth from this memory (bytes/s)
system.mem_ctrls.bw_read::cpu.data          174842517                       # Total read bandwidth from this memory (bytes/s)
system.mem_ctrls.bw_read::total             174864394                       # Total read bandwidth from this memory (bytes/s)
system.mem_ctrls.bw_inst_read::cpu.inst         21877                       # Instruction read bandwidth from this memory (bytes/s)
system.mem_ctrls.bw_inst_read::total            21877                       # Instruction read bandwidth from this memory (bytes/s)
system.mem_ctrls.bw_write::writebacks        21470747                       # Write bandwidth from this memory (bytes/s)
system.mem_ctrls.bw_write::total             21470747                       # Write bandwidth from this memory (bytes/s)
system.mem_ctrls.bw_total::writebacks        21470747                       # Total bandwidth to/from this memory (bytes/s)
system.mem_ctrls.bw_total::cpu.inst             21877                       # Total bandwidth to/from this memory (bytes/s)
system.mem_ctrls.bw_total::cpu.data         174842517                       # Total bandwidth to/from this memory (bytes/s)
system.mem_ctrls.bw_total::total            196335141                       # Total bandwidth to/from this memory (bytes/s)
system.mem_ctrls.readReqs                    10318986                       # Number of read requests accepted
system.mem_ctrls.writeReqs                    1267018                       # Number of write requests accepted
system.mem_ctrls.readBursts                  10318986                       # Number of DRAM read bursts, including those serviced by the write queue
system.mem_ctrls.writeBursts                  1267018                       # Number of DRAM write bursts, including those merged in the write queue
system.mem_ctrls.bytesReadDRAM              659898176                       # Total number of bytes read from DRAM
system.mem_ctrls.bytesReadWrQ                  516928                       # Total number of bytes read from write queue
system.mem_ctrls.bytesWritten                73664384                       # Total number of bytes written to DRAM
system.mem_ctrls.bytesReadSys               330207552                       # Total read bytes from the system interface side
system.mem_ctrls.bytesWrittenSys             40544576                       # Total written bytes from the system interface side
system.mem_ctrls.servicedByWrQ                   8077                       # Number of DRAM read bursts serviced by the write queue
system.mem_ctrls.mergedWrBursts                115986                       # Number of DRAM write bursts merged with an existing one
system.mem_ctrls.neitherReadNorWriteReqs      9018083                       # Number of requests that are neither read nor write
system.mem_ctrls.perBankRdBursts::0            662157                       # Per bank write bursts
system.mem_ctrls.perBankRdBursts::1            641003                       # Per bank write bursts
system.mem_ctrls.perBankRdBursts::2            643015                       # Per bank write bursts
system.mem_ctrls.perBankRdBursts::3            652478                       # Per bank write bursts
system.mem_ctrls.perBankRdBursts::4            628918                       # Per bank write bursts
system.mem_ctrls.perBankRdBursts::5            634451                       # Per bank write bursts
system.mem_ctrls.perBankRdBursts::6            640580                       # Per bank write bursts
system.mem_ctrls.perBankRdBursts::7            631085                       # Per bank write bursts
system.mem_ctrls.perBankRdBursts::8            638118                       # Per bank write bursts
system.mem_ctrls.perBankRdBursts::9            636009                       # Per bank write bursts
system.mem_ctrls.perBankRdBursts::10           636751                       # Per bank write bursts
system.mem_ctrls.perBankRdBursts::11           644020                       # Per bank write bursts
system.mem_ctrls.perBankRdBursts::12           655180                       # Per bank write bursts
system.mem_ctrls.perBankRdBursts::13           659513                       # Per bank write bursts
system.mem_ctrls.perBankRdBursts::14           651554                       # Per bank write bursts
system.mem_ctrls.perBankRdBursts::15           656077                       # Per bank write bursts
system.mem_ctrls.perBankWrBursts::0             74326                       # Per bank write bursts
system.mem_ctrls.perBankWrBursts::1             73621                       # Per bank write bursts
system.mem_ctrls.perBankWrBursts::2             73646                       # Per bank write bursts
system.mem_ctrls.perBankWrBursts::3             77483                       # Per bank write bursts
system.mem_ctrls.perBankWrBursts::4             70890                       # Per bank write bursts
system.mem_ctrls.perBankWrBursts::5             68598                       # Per bank write bursts
system.mem_ctrls.perBankWrBursts::6             70816                       # Per bank write bursts
system.mem_ctrls.perBankWrBursts::7             68242                       # Per bank write bursts
system.mem_ctrls.perBankWrBursts::8             69384                       # Per bank write bursts
system.mem_ctrls.perBankWrBursts::9             68014                       # Per bank write bursts
system.mem_ctrls.perBankWrBursts::10            68295                       # Per bank write bursts
system.mem_ctrls.perBankWrBursts::11            71680                       # Per bank write bursts
system.mem_ctrls.perBankWrBursts::12            74131                       # Per bank write bursts
system.mem_ctrls.perBankWrBursts::13            74231                       # Per bank write bursts
system.mem_ctrls.perBankWrBursts::14            73659                       # Per bank write bursts
system.mem_ctrls.perBankWrBursts::15            73990                       # Per bank write bursts
system.mem_ctrls.numRdRetry                         0                       # Number of times read queue was full causing retry
system.mem_ctrls.numWrRetry                         0                       # Number of times write queue was full causing retry
system.mem_ctrls.totGap                  1888346649500                       # Total gap between requests
system.mem_ctrls.readPktSize::0                     0                       # Read request sizes (log2)
system.mem_ctrls.readPktSize::1                     0                       # Read request sizes (log2)
system.mem_ctrls.readPktSize::2                     0                       # Read request sizes (log2)
system.mem_ctrls.readPktSize::3                     0                       # Read request sizes (log2)
system.mem_ctrls.readPktSize::4                     0                       # Read request sizes (log2)
system.mem_ctrls.readPktSize::5              10318986                       # Read request sizes (log2)
system.mem_ctrls.readPktSize::6                     0                       # Read request sizes (log2)
system.mem_ctrls.writePktSize::0                    0                       # Write request sizes (log2)
system.mem_ctrls.writePktSize::1                    0                       # Write request sizes (log2)
system.mem_ctrls.writePktSize::2                    0                       # Write request sizes (log2)
system.mem_ctrls.writePktSize::3                    0                       # Write request sizes (log2)
system.mem_ctrls.writePktSize::4                    0                       # Write request sizes (log2)
system.mem_ctrls.writePktSize::5              1267018                       # Write request sizes (log2)
system.mem_ctrls.writePktSize::6                    0                       # Write request sizes (log2)
system.mem_ctrls.rdQLenPdf::0                10310909                       # What read queue length does an incoming req see
system.mem_ctrls.rdQLenPdf::1                       0                       # What read queue length does an incoming req see
system.mem_ctrls.rdQLenPdf::2                       0                       # What read queue length does an incoming req see
system.mem_ctrls.rdQLenPdf::3                       0                       # What read queue length does an incoming req see
system.mem_ctrls.rdQLenPdf::4                       0                       # What read queue length does an incoming req see
system.mem_ctrls.rdQLenPdf::5                       0                       # What read queue length does an incoming req see
system.mem_ctrls.rdQLenPdf::6                       0                       # What read queue length does an incoming req see
system.mem_ctrls.rdQLenPdf::7                       0                       # What read queue length does an incoming req see
system.mem_ctrls.rdQLenPdf::8                       0                       # What read queue length does an incoming req see
system.mem_ctrls.rdQLenPdf::9                       0                       # What read queue length does an incoming req see
system.mem_ctrls.rdQLenPdf::10                      0                       # What read queue length does an incoming req see
system.mem_ctrls.rdQLenPdf::11                      0                       # What read queue length does an incoming req see
system.mem_ctrls.rdQLenPdf::12                      0                       # What read queue length does an incoming req see
system.mem_ctrls.rdQLenPdf::13                      0                       # What read queue length does an incoming req see
system.mem_ctrls.rdQLenPdf::14                      0                       # What read queue length does an incoming req see
system.mem_ctrls.rdQLenPdf::15                      0                       # What read queue length does an incoming req see
system.mem_ctrls.rdQLenPdf::16                      0                       # What read queue length does an incoming req see
system.mem_ctrls.rdQLenPdf::17                      0                       # What read queue length does an incoming req see
system.mem_ctrls.rdQLenPdf::18                      0                       # What read queue length does an incoming req see
system.mem_ctrls.rdQLenPdf::19                      0                       # What read queue length does an incoming req see
system.mem_ctrls.rdQLenPdf::20                      0                       # What read queue length does an incoming req see
system.mem_ctrls.rdQLenPdf::21                      0                       # What read queue length does an incoming req see
system.mem_ctrls.rdQLenPdf::22                      0                       # What read queue length does an incoming req see
system.mem_ctrls.rdQLenPdf::23                      0                       # What read queue length does an incoming req see
system.mem_ctrls.rdQLenPdf::24                      0                       # What read queue length does an incoming req see
system.mem_ctrls.rdQLenPdf::25                      0                       # What read queue length does an incoming req see
system.mem_ctrls.rdQLenPdf::26                      0                       # What read queue length does an incoming req see
system.mem_ctrls.rdQLenPdf::27                      0                       # What read queue length does an incoming req see
system.mem_ctrls.rdQLenPdf::28                      0                       # What read queue length does an incoming req see
system.mem_ctrls.rdQLenPdf::29                      0                       # What read queue length does an incoming req see
system.mem_ctrls.rdQLenPdf::30                      0                       # What read queue length does an incoming req see
system.mem_ctrls.rdQLenPdf::31                      0                       # What read queue length does an incoming req see
system.mem_ctrls.wrQLenPdf::0                       1                       # What write queue length does an incoming req see
system.mem_ctrls.wrQLenPdf::1                       1                       # What write queue length does an incoming req see
system.mem_ctrls.wrQLenPdf::2                       1                       # What write queue length does an incoming req see
system.mem_ctrls.wrQLenPdf::3                       1                       # What write queue length does an incoming req see
system.mem_ctrls.wrQLenPdf::4                       1                       # What write queue length does an incoming req see
system.mem_ctrls.wrQLenPdf::5                       1                       # What write queue length does an incoming req see
system.mem_ctrls.wrQLenPdf::6                       1                       # What write queue length does an incoming req see
system.mem_ctrls.wrQLenPdf::7                       1                       # What write queue length does an incoming req see
system.mem_ctrls.wrQLenPdf::8                       1                       # What write queue length does an incoming req see
system.mem_ctrls.wrQLenPdf::9                       1                       # What write queue length does an incoming req see
system.mem_ctrls.wrQLenPdf::10                      1                       # What write queue length does an incoming req see
system.mem_ctrls.wrQLenPdf::11                      1                       # What write queue length does an incoming req see
system.mem_ctrls.wrQLenPdf::12                      1                       # What write queue length does an incoming req see
system.mem_ctrls.wrQLenPdf::13                      1                       # What write queue length does an incoming req see
system.mem_ctrls.wrQLenPdf::14                      1                       # What write queue length does an incoming req see
system.mem_ctrls.wrQLenPdf::15                  16842                       # What write queue length does an incoming req see
system.mem_ctrls.wrQLenPdf::16                  18342                       # What write queue length does an incoming req see
system.mem_ctrls.wrQLenPdf::17                  69448                       # What write queue length does an incoming req see
system.mem_ctrls.wrQLenPdf::18                  69740                       # What write queue length does an incoming req see
system.mem_ctrls.wrQLenPdf::19                  69736                       # What write queue length does an incoming req see
system.mem_ctrls.wrQLenPdf::20                  69747                       # What write queue length does an incoming req see
system.mem_ctrls.wrQLenPdf::21                  69733                       # What write queue length does an incoming req see
system.mem_ctrls.wrQLenPdf::22                  69734                       # What write queue length does an incoming req see
system.mem_ctrls.wrQLenPdf::23                  69732                       # What write queue length does an incoming req see
system.mem_ctrls.wrQLenPdf::24                  69735                       # What write queue length does an incoming req see
system.mem_ctrls.wrQLenPdf::25                  69818                       # What write queue length does an incoming req see
system.mem_ctrls.wrQLenPdf::26                  69732                       # What write queue length does an incoming req see
system.mem_ctrls.wrQLenPdf::27                  69866                       # What write queue length does an incoming req see
system.mem_ctrls.wrQLenPdf::28                  69824                       # What write queue length does an incoming req see
system.mem_ctrls.wrQLenPdf::29                  69765                       # What write queue length does an incoming req see
system.mem_ctrls.wrQLenPdf::30                  69767                       # What write queue length does an incoming req see
system.mem_ctrls.wrQLenPdf::31                  69727                       # What write queue length does an incoming req see
system.mem_ctrls.wrQLenPdf::32                  69725                       # What write queue length does an incoming req see
system.mem_ctrls.wrQLenPdf::33                      4                       # What write queue length does an incoming req see
system.mem_ctrls.wrQLenPdf::34                      0                       # What write queue length does an incoming req see
system.mem_ctrls.wrQLenPdf::35                      0                       # What write queue length does an incoming req see
system.mem_ctrls.wrQLenPdf::36                      0                       # What write queue length does an incoming req see
system.mem_ctrls.wrQLenPdf::37                      0                       # What write queue length does an incoming req see
system.mem_ctrls.wrQLenPdf::38                      0                       # What write queue length does an incoming req see
system.mem_ctrls.wrQLenPdf::39                      0                       # What write queue length does an incoming req see
system.mem_ctrls.wrQLenPdf::40                      0                       # What write queue length does an incoming req see
system.mem_ctrls.wrQLenPdf::41                      0                       # What write queue length does an incoming req see
system.mem_ctrls.wrQLenPdf::42                      0                       # What write queue length does an incoming req see
system.mem_ctrls.wrQLenPdf::43                      0                       # What write queue length does an incoming req see
system.mem_ctrls.wrQLenPdf::44                      0                       # What write queue length does an incoming req see
system.mem_ctrls.wrQLenPdf::45                      0                       # What write queue length does an incoming req see
system.mem_ctrls.wrQLenPdf::46                      0                       # What write queue length does an incoming req see
system.mem_ctrls.wrQLenPdf::47                      0                       # What write queue length does an incoming req see
system.mem_ctrls.wrQLenPdf::48                      0                       # What write queue length does an incoming req see
system.mem_ctrls.wrQLenPdf::49                      0                       # What write queue length does an incoming req see
system.mem_ctrls.wrQLenPdf::50                      0                       # What write queue length does an incoming req see
system.mem_ctrls.wrQLenPdf::51                      0                       # What write queue length does an incoming req see
system.mem_ctrls.wrQLenPdf::52                      0                       # What write queue length does an incoming req see
system.mem_ctrls.wrQLenPdf::53                      0                       # What write queue length does an incoming req see
system.mem_ctrls.wrQLenPdf::54                      0                       # What write queue length does an incoming req see
system.mem_ctrls.wrQLenPdf::55                      0                       # What write queue length does an incoming req see
system.mem_ctrls.wrQLenPdf::56                      0                       # What write queue length does an incoming req see
system.mem_ctrls.wrQLenPdf::57                      0                       # What write queue length does an incoming req see
system.mem_ctrls.wrQLenPdf::58                      0                       # What write queue length does an incoming req see
system.mem_ctrls.wrQLenPdf::59                      0                       # What write queue length does an incoming req see
system.mem_ctrls.wrQLenPdf::60                      0                       # What write queue length does an incoming req see
system.mem_ctrls.wrQLenPdf::61                      0                       # What write queue length does an incoming req see
system.mem_ctrls.wrQLenPdf::62                      0                       # What write queue length does an incoming req see
system.mem_ctrls.wrQLenPdf::63                      0                       # What write queue length does an incoming req see
system.mem_ctrls.bytesPerActivate::samples      5859209                       # Bytes accessed per row activation
system.mem_ctrls.bytesPerActivate::mean    125.198224                       # Bytes accessed per row activation
system.mem_ctrls.bytesPerActivate::gmean   106.472523                       # Bytes accessed per row activation
system.mem_ctrls.bytesPerActivate::stdev   121.375409                       # Bytes accessed per row activation
system.mem_ctrls.bytesPerActivate::0-127      2078805     35.48%     35.48% # Bytes accessed per row activation
system.mem_ctrls.bytesPerActivate::128-255      3552816     60.64%     96.12% # Bytes accessed per row activation
system.mem_ctrls.bytesPerActivate::256-383        85693      1.46%     97.58% # Bytes accessed per row activation
system.mem_ctrls.bytesPerActivate::384-511        24537      0.42%     98.00% # Bytes accessed per row activation
system.mem_ctrls.bytesPerActivate::512-639        15654      0.27%     98.26% # Bytes accessed per row activation
system.mem_ctrls.bytesPerActivate::640-767        10475      0.18%     98.44% # Bytes accessed per row activation
system.mem_ctrls.bytesPerActivate::768-895        11585      0.20%     98.64% # Bytes accessed per row activation
system.mem_ctrls.bytesPerActivate::896-1023         8303      0.14%     98.78% # Bytes accessed per row activation
system.mem_ctrls.bytesPerActivate::1024-1151        71341      1.22%    100.00% # Bytes accessed per row activation
system.mem_ctrls.bytesPerActivate::total      5859209                       # Bytes accessed per row activation
system.mem_ctrls.rdPerTurnAround::samples        69725                       # Reads before turning the bus around for writes
system.mem_ctrls.rdPerTurnAround::mean     147.879139                       # Reads before turning the bus around for writes
system.mem_ctrls.rdPerTurnAround::gmean     77.311881                       # Reads before turning the bus around for writes
system.mem_ctrls.rdPerTurnAround::stdev    221.914736                       # Reads before turning the bus around for writes
system.mem_ctrls.rdPerTurnAround::0-255         57764     82.85%     82.85% # Reads before turning the bus around for writes
system.mem_ctrls.rdPerTurnAround::256-511         6488      9.31%     92.15% # Reads before turning the bus around for writes
system.mem_ctrls.rdPerTurnAround::512-767         4707      6.75%     98.90% # Reads before turning the bus around for writes
system.mem_ctrls.rdPerTurnAround::768-1023          304      0.44%     99.34% # Reads before turning the bus around for writes
system.mem_ctrls.rdPerTurnAround::1024-1279          165      0.24%     99.57% # Reads before turning the bus around for writes
system.mem_ctrls.rdPerTurnAround::1280-1535          108      0.15%     99.73% # Reads before turning the bus around for writes
system.mem_ctrls.rdPerTurnAround::1536-1791           61      0.09%     99.82% # Reads before turning the bus around for writes
system.mem_ctrls.rdPerTurnAround::1792-2047           33      0.05%     99.86% # Reads before turning the bus around for writes
system.mem_ctrls.rdPerTurnAround::2048-2303           27      0.04%     99.90% # Reads before turning the bus around for writes
system.mem_ctrls.rdPerTurnAround::2304-2559           12      0.02%     99.92% # Reads before turning the bus around for writes
system.mem_ctrls.rdPerTurnAround::2560-2815           14      0.02%     99.94% # Reads before turning the bus around for writes
system.mem_ctrls.rdPerTurnAround::2816-3071           11      0.02%     99.96% # Reads before turning the bus around for writes
system.mem_ctrls.rdPerTurnAround::3072-3327            9      0.01%     99.97% # Reads before turning the bus around for writes
system.mem_ctrls.rdPerTurnAround::3328-3583            5      0.01%     99.98% # Reads before turning the bus around for writes
system.mem_ctrls.rdPerTurnAround::3584-3839            5      0.01%     99.98% # Reads before turning the bus around for writes
system.mem_ctrls.rdPerTurnAround::3840-4095            5      0.01%     99.99% # Reads before turning the bus around for writes
system.mem_ctrls.rdPerTurnAround::4352-4607            1      0.00%     99.99% # Reads before turning the bus around for writes
system.mem_ctrls.rdPerTurnAround::5120-5375            1      0.00%     99.99% # Reads before turning the bus around for writes
system.mem_ctrls.rdPerTurnAround::5376-5631            1      0.00%     99.99% # Reads before turning the bus around for writes
system.mem_ctrls.rdPerTurnAround::5632-5887            1      0.00%    100.00% # Reads before turning the bus around for writes
system.mem_ctrls.rdPerTurnAround::5888-6143            2      0.00%    100.00% # Reads before turning the bus around for writes
system.mem_ctrls.rdPerTurnAround::6400-6655            1      0.00%    100.00% # Reads before turning the bus around for writes
system.mem_ctrls.rdPerTurnAround::total         69725                       # Reads before turning the bus around for writes
system.mem_ctrls.wrPerTurnAround::samples        69725                       # Writes before turning the bus around for reads
system.mem_ctrls.wrPerTurnAround::mean      16.507795                       # Writes before turning the bus around for reads
system.mem_ctrls.wrPerTurnAround::gmean     16.486091                       # Writes before turning the bus around for reads
system.mem_ctrls.wrPerTurnAround::stdev      0.863023                       # Writes before turning the bus around for reads
system.mem_ctrls.wrPerTurnAround::16            51367     73.67%     73.67% # Writes before turning the bus around for reads
system.mem_ctrls.wrPerTurnAround::17             1511      2.17%     75.84% # Writes before turning the bus around for reads
system.mem_ctrls.wrPerTurnAround::18            16649     23.88%     99.72% # Writes before turning the bus around for reads
system.mem_ctrls.wrPerTurnAround::19              195      0.28%    100.00% # Writes before turning the bus around for reads
system.mem_ctrls.wrPerTurnAround::20                3      0.00%    100.00% # Writes before turning the bus around for reads
system.mem_ctrls.wrPerTurnAround::total         69725                       # Writes before turning the bus around for reads
system.mem_ctrls.totQLat                 159117781750                       # Total ticks spent queuing
system.mem_ctrls.totMemAccLat            352447325500                       # Total ticks spent from burst creation until serviced by the DRAM
system.mem_ctrls.totBusLat                51554545000                       # Total ticks spent in databus transfers
system.mem_ctrls.avgQLat                     15431.98                       # Average queueing delay per DRAM burst
system.mem_ctrls.avgBusLat                    5000.00                       # Average bus latency per DRAM burst
system.mem_ctrls.avgMemAccLat                34181.98                       # Average memory access latency per DRAM burst
system.mem_ctrls.avgRdBW                       349.46                       # Average DRAM read bandwidth in MiByte/s
system.mem_ctrls.avgWrBW                        39.01                       # Average achieved write bandwidth in MiByte/s
system.mem_ctrls.avgRdBWSys                    174.86                       # Average system read bandwidth in MiByte/s
system.mem_ctrls.avgWrBWSys                     21.47                       # Average system write bandwidth in MiByte/s
system.mem_ctrls.peakBW                      12800.00                       # Theoretical peak bandwidth in MiByte/s
system.mem_ctrls.busUtil                         3.03                       # Data bus utilization in percentage
system.mem_ctrls.busUtilRead                     2.73                       # Data bus utilization in percentage for reads
system.mem_ctrls.busUtilWrite                    0.30                       # Data bus utilization in percentage for writes
system.mem_ctrls.avgRdQLen                       1.00                       # Average read queue length when enqueuing
system.mem_ctrls.avgWrQLen                      25.17                       # Average write queue length when enqueuing
system.mem_ctrls.readRowHits                  5115356                       # Number of row buffer hits during reads
system.mem_ctrls.writeRowHits                  487350                       # Number of row buffer hits during writes
system.mem_ctrls.readRowHitRate                 49.61                       # Row buffer hit rate for reads
system.mem_ctrls.writeRowHitRate                42.34                       # Row buffer hit rate for writes
system.mem_ctrls.avgGap                     162985.15                       # Average gap between requests
system.mem_ctrls.pageHitRate                    48.88                       # Row buffer hit rate, read and write combined
system.mem_ctrls_0.actEnergy              22014523440                       # Energy for activate commands per rank (pJ)
system.mem_ctrls_0.preEnergy              12011892750                       # Energy for precharge commands per rank (pJ)
system.mem_ctrls_0.readEnergy             40042758600                       # Energy for read commands per rank (pJ)
system.mem_ctrls_0.writeEnergy             3742990560                       # Energy for write commands per rank (pJ)
system.mem_ctrls_0.refreshEnergy         123338514000                       # Energy for refresh commands per rank (pJ)
system.mem_ctrls_0.actBackEnergy         1002852331920                       # Energy for active background per rank (pJ)
system.mem_ctrls_0.preBackEnergy         253321288500                       # Energy for precharge background per rank (pJ)
system.mem_ctrls_0.totalEnergy           1457324299770                       # Total energy per rank (pJ)
system.mem_ctrls_0.averagePower            771.740501                       # Core power per rank (mW)
system.mem_ctrls_0.memoryStateTime::IDLE 415346483750                       # Time in different power states
system.mem_ctrls_0.memoryStateTime::REF   63056500000                       # Time in different power states
system.mem_ctrls_0.memoryStateTime::PRE_PDN            0                       # Time in different power states
system.mem_ctrls_0.memoryStateTime::ACT  1409957557500                       # Time in different power states
system.mem_ctrls_0.memoryStateTime::ACT_PDN            0                       # Time in different power states
system.mem_ctrls_1.actEnergy              22281096600                       # Energy for activate commands per rank (pJ)
system.mem_ctrls_1.preEnergy              12157344375                       # Energy for precharge commands per rank (pJ)
system.mem_ctrls_1.readEnergy             40382331600                       # Energy for read commands per rank (pJ)
system.mem_ctrls_1.writeEnergy             3715528320                       # Energy for write commands per rank (pJ)
system.mem_ctrls_1.refreshEnergy         123338514000                       # Energy for refresh commands per rank (pJ)
system.mem_ctrls_1.actBackEnergy         1004372208135                       # Energy for active background per rank (pJ)
system.mem_ctrls_1.preBackEnergy         251988063750                       # Energy for precharge background per rank (pJ)
system.mem_ctrls_1.totalEnergy           1458235086780                       # Total energy per rank (pJ)
system.mem_ctrls_1.averagePower            772.222817                       # Core power per rank (mW)
system.mem_ctrls_1.memoryStateTime::IDLE 412755021750                       # Time in different power states
system.mem_ctrls_1.memoryStateTime::REF   63056500000                       # Time in different power states
system.mem_ctrls_1.memoryStateTime::PRE_PDN            0                       # Time in different power states
system.mem_ctrls_1.memoryStateTime::ACT  1412549019500                       # Time in different power states
system.mem_ctrls_1.memoryStateTime::ACT_PDN            0                       # Time in different power states
system.cpu_voltage_domain.voltage                   1                       # Voltage in Volts
system.cpu_clk_domain.clock                       500                       # Clock period in ticks
system.cpu.apic_clk_domain.clock                 8000                       # Clock period in ticks
system.cpu.workload.num_syscalls                  168                       # Number of system calls
system.cpu.numCycles                       3776727143                       # number of cpu cycles simulated
system.cpu.numWorkItemsStarted                      0                       # number of work items this cpu started
system.cpu.numWorkItemsCompleted                    0                       # number of work items this cpu completed
system.cpu.committedInsts                   500000000                       # Number of instructions committed
system.cpu.committedOps                     876313783                       # Number of ops (including micro ops) committed
system.cpu.num_int_alu_accesses             872966680                       # Number of integer alu accesses
system.cpu.num_fp_alu_accesses                2882231                       # Number of float alu accesses
system.cpu.num_func_calls                    11025254                       # number of times a function call or return occured
system.cpu.num_conditional_control_insts     75981009                       # number of instructions that are conditional controls
system.cpu.num_int_insts                    872966680                       # number of integer instructions
system.cpu.num_fp_insts                       2882231                       # number of float instructions
system.cpu.num_int_register_reads          1835046958                       # number of times the integer registers were read
system.cpu.num_int_register_writes          703076418                       # number of times the integer registers were written
system.cpu.num_fp_register_reads              4386063                       # number of times the floating registers were read
system.cpu.num_fp_register_writes             2464405                       # number of times the floating registers were written
system.cpu.num_cc_register_reads            441654667                       # number of times the CC registers were read
system.cpu.num_cc_register_writes           253505512                       # number of times the CC registers were written
system.cpu.num_mem_refs                     293763599                       # number of memory refs
system.cpu.num_load_insts                   221285042                       # Number of load instructions
system.cpu.num_store_insts                   72478557                       # Number of store instructions
system.cpu.num_idle_cycles                          0                       # Number of idle cycles
system.cpu.num_busy_cycles                 3776727143                       # Number of busy cycles
system.cpu.not_idle_fraction                        1                       # Percentage of non-idle cycles
system.cpu.idle_fraction                            0                       # Percentage of idle cycles
system.cpu.Branches                          97901001                       # Number of branches fetched
system.cpu.op_class::No_OpClass                939429      0.11%      0.11% # Class of executed instruction
system.cpu.op_class::IntAlu                 578420254     66.01%     66.11% # Class of executed instruction
system.cpu.op_class::IntMult                   907073      0.10%     66.22% # Class of executed instruction
system.cpu.op_class::IntDiv                        42      0.00%     66.22% # Class of executed instruction
system.cpu.op_class::FloatAdd                 2283386      0.26%     66.48% # Class of executed instruction
system.cpu.op_class::FloatCmp                       0      0.00%     66.48% # Class of executed instruction
system.cpu.op_class::FloatCvt                       0      0.00%     66.48% # Class of executed instruction
system.cpu.op_class::FloatMult                      0      0.00%     66.48% # Class of executed instruction
system.cpu.op_class::FloatDiv                       0      0.00%     66.48% # Class of executed instruction
system.cpu.op_class::FloatSqrt                      0      0.00%     66.48% # Class of executed instruction
system.cpu.op_class::SimdAdd                        0      0.00%     66.48% # Class of executed instruction
system.cpu.op_class::SimdAddAcc                     0      0.00%     66.48% # Class of executed instruction
system.cpu.op_class::SimdAlu                        0      0.00%     66.48% # Class of executed instruction
system.cpu.op_class::SimdCmp                        0      0.00%     66.48% # Class of executed instruction
system.cpu.op_class::SimdCvt                        0      0.00%     66.48% # Class of executed instruction
system.cpu.op_class::SimdMisc                       0      0.00%     66.48% # Class of executed instruction
system.cpu.op_class::SimdMult                       0      0.00%     66.48% # Class of executed instruction
system.cpu.op_class::SimdMultAcc                    0      0.00%     66.48% # Class of executed instruction
system.cpu.op_class::SimdShift                      0      0.00%     66.48% # Class of executed instruction
system.cpu.op_class::SimdShiftAcc                   0      0.00%     66.48% # Class of executed instruction
system.cpu.op_class::SimdSqrt                       0      0.00%     66.48% # Class of executed instruction
system.cpu.op_class::SimdFloatAdd                   0      0.00%     66.48% # Class of executed instruction
system.cpu.op_class::SimdFloatAlu                   0      0.00%     66.48% # Class of executed instruction
system.cpu.op_class::SimdFloatCmp                   0      0.00%     66.48% # Class of executed instruction
system.cpu.op_class::SimdFloatCvt                   0      0.00%     66.48% # Class of executed instruction
system.cpu.op_class::SimdFloatDiv                   0      0.00%     66.48% # Class of executed instruction
system.cpu.op_class::SimdFloatMisc                  0      0.00%     66.48% # Class of executed instruction
system.cpu.op_class::SimdFloatMult                  0      0.00%     66.48% # Class of executed instruction
system.cpu.op_class::SimdFloatMultAcc               0      0.00%     66.48% # Class of executed instruction
system.cpu.op_class::SimdFloatSqrt                  0      0.00%     66.48% # Class of executed instruction
system.cpu.op_class::MemRead                221285042     25.25%     91.73% # Class of executed instruction
system.cpu.op_class::MemWrite                72478557      8.27%    100.00% # Class of executed instruction
system.cpu.op_class::IprAccess                      0      0.00%    100.00% # Class of executed instruction
system.cpu.op_class::InstPrefetch                   0      0.00%    100.00% # Class of executed instruction
system.cpu.op_class::total                  876313783                       # Class of executed instruction
system.cpu.dcache.tags.replacements          12566984                       # number of replacements
system.cpu.dcache.tags.tagsinuse          4094.269135                       # Cycle average of tags in use
system.cpu.dcache.tags.total_refs           281240770                       # Total number of references to valid blocks.
system.cpu.dcache.tags.sampled_refs          12571080                       # Sample count of references to valid blocks.
system.cpu.dcache.tags.avg_refs             22.372045                       # Average number of references to valid blocks.
system.cpu.dcache.tags.warmup_cycle        2116710500                       # Cycle when the warmup percentage was hit.
system.cpu.dcache.tags.occ_blocks::cpu.data  4094.269135                       # Average occupied blocks per requestor
system.cpu.dcache.tags.occ_percent::cpu.data     0.999577                       # Average percentage of cache occupancy
system.cpu.dcache.tags.occ_percent::total     0.999577                       # Average percentage of cache occupancy
system.cpu.dcache.tags.occ_task_id_blocks::1024         4096                       # Occupied blocks per task id
system.cpu.dcache.tags.age_task_id_blocks_1024::1          771                       # Occupied blocks per task id
system.cpu.dcache.tags.age_task_id_blocks_1024::2         2914                       # Occupied blocks per task id
system.cpu.dcache.tags.age_task_id_blocks_1024::3          240                       # Occupied blocks per task id
system.cpu.dcache.tags.age_task_id_blocks_1024::4          171                       # Occupied blocks per task id
system.cpu.dcache.tags.occ_task_id_percent::1024            1                       # Percentage of cache occupancy per task id
system.cpu.dcache.tags.tag_accesses        2363065880                       # Number of tag accesses
system.cpu.dcache.tags.data_accesses       2363065880                       # Number of data accesses
system.cpu.dcache.ReadReq_hits::cpu.data    209281851                       # number of ReadReq hits
system.cpu.dcache.ReadReq_hits::total       209281851                       # number of ReadReq hits
system.cpu.dcache.WriteReq_hits::cpu.data     71958919                       # number of WriteReq hits
system.cpu.dcache.WriteReq_hits::total       71958919                       # number of WriteReq hits
system.cpu.dcache.demand_hits::cpu.data     281240770                       # number of demand (read+write) hits
system.cpu.dcache.demand_hits::total        281240770                       # number of demand (read+write) hits
system.cpu.dcache.overall_hits::cpu.data    281240770                       # number of overall hits
system.cpu.dcache.overall_hits::total       281240770                       # number of overall hits
system.cpu.dcache.ReadReq_misses::cpu.data     12051439                       # number of ReadReq misses
system.cpu.dcache.ReadReq_misses::total      12051439                       # number of ReadReq misses
system.cpu.dcache.WriteReq_misses::cpu.data       519641                       # number of WriteReq misses
system.cpu.dcache.WriteReq_misses::total       519641                       # number of WriteReq misses
system.cpu.dcache.demand_misses::cpu.data     12571080                       # number of demand (read+write) misses
system.cpu.dcache.demand_misses::total       12571080                       # number of demand (read+write) misses
system.cpu.dcache.overall_misses::cpu.data     12571080                       # number of overall misses
system.cpu.dcache.overall_misses::total      12571080                       # number of overall misses
system.cpu.dcache.ReadReq_miss_latency::cpu.data 885571521500                       # number of ReadReq miss cycles
system.cpu.dcache.ReadReq_miss_latency::total 885571521500                       # number of ReadReq miss cycles
system.cpu.dcache.WriteReq_miss_latency::cpu.data  37257393000                       # number of WriteReq miss cycles
system.cpu.dcache.WriteReq_miss_latency::total  37257393000                       # number of WriteReq miss cycles
system.cpu.dcache.demand_miss_latency::cpu.data 922828914500                       # number of demand (read+write) miss cycles
system.cpu.dcache.demand_miss_latency::total 922828914500                       # number of demand (read+write) miss cycles
system.cpu.dcache.overall_miss_latency::cpu.data 922828914500                       # number of overall miss cycles
system.cpu.dcache.overall_miss_latency::total 922828914500                       # number of overall miss cycles
system.cpu.dcache.ReadReq_accesses::cpu.data    221333290                       # number of ReadReq accesses(hits+misses)
system.cpu.dcache.ReadReq_accesses::total    221333290                       # number of ReadReq accesses(hits+misses)
system.cpu.dcache.WriteReq_accesses::cpu.data     72478560                       # number of WriteReq accesses(hits+misses)
system.cpu.dcache.WriteReq_accesses::total     72478560                       # number of WriteReq accesses(hits+misses)
system.cpu.dcache.demand_accesses::cpu.data    293811850                       # number of demand (read+write) accesses
system.cpu.dcache.demand_accesses::total    293811850                       # number of demand (read+write) accesses
system.cpu.dcache.overall_accesses::cpu.data    293811850                       # number of overall (read+write) accesses
system.cpu.dcache.overall_accesses::total    293811850                       # number of overall (read+write) accesses
system.cpu.dcache.ReadReq_miss_rate::cpu.data     0.054449                       # miss rate for ReadReq accesses
system.cpu.dcache.ReadReq_miss_rate::total     0.054449                       # miss rate for ReadReq accesses
system.cpu.dcache.WriteReq_miss_rate::cpu.data     0.007170                       # miss rate for WriteReq accesses
system.cpu.dcache.WriteReq_miss_rate::total     0.007170                       # miss rate for WriteReq accesses
system.cpu.dcache.demand_miss_rate::cpu.data     0.042786                       # miss rate for demand accesses
system.cpu.dcache.demand_miss_rate::total     0.042786                       # miss rate for demand accesses
system.cpu.dcache.overall_miss_rate::cpu.data     0.042786                       # miss rate for overall accesses
system.cpu.dcache.overall_miss_rate::total     0.042786                       # miss rate for overall accesses
system.cpu.dcache.ReadReq_avg_miss_latency::cpu.data 73482.637343                       # average ReadReq miss latency
system.cpu.dcache.ReadReq_avg_miss_latency::total 73482.637343                       # average ReadReq miss latency
system.cpu.dcache.WriteReq_avg_miss_latency::cpu.data 71698.332118                       # average WriteReq miss latency
system.cpu.dcache.WriteReq_avg_miss_latency::total 71698.332118                       # average WriteReq miss latency
system.cpu.dcache.demand_avg_miss_latency::cpu.data 73408.880900                       # average overall miss latency
system.cpu.dcache.demand_avg_miss_latency::total 73408.880900                       # average overall miss latency
system.cpu.dcache.overall_avg_miss_latency::cpu.data 73408.880900                       # average overall miss latency
system.cpu.dcache.overall_avg_miss_latency::total 73408.880900                       # average overall miss latency
system.cpu.dcache.blocked_cycles::no_mshrs            0                       # number of cycles access was blocked
system.cpu.dcache.blocked_cycles::no_targets            0                       # number of cycles access was blocked
system.cpu.dcache.blocked::no_mshrs                 0                       # number of cycles access was blocked
system.cpu.dcache.blocked::no_targets               0                       # number of cycles access was blocked
system.cpu.dcache.avg_blocked_cycles::no_mshrs          nan                       # average number of cycles each access was blocked
system.cpu.dcache.avg_blocked_cycles::no_targets          nan                       # average number of cycles each access was blocked
system.cpu.dcache.fast_writes                       0                       # number of fast writes performed
system.cpu.dcache.cache_copies                      0                       # number of cache copies performed
system.cpu.dcache.writebacks::writebacks      2278426                       # number of writebacks
system.cpu.dcache.writebacks::total           2278426                       # number of writebacks
system.cpu.dcache.ReadReq_mshr_misses::cpu.data     12051439                       # number of ReadReq MSHR misses
system.cpu.dcache.ReadReq_mshr_misses::total     12051439                       # number of ReadReq MSHR misses
system.cpu.dcache.WriteReq_mshr_misses::cpu.data       519641                       # number of WriteReq MSHR misses
system.cpu.dcache.WriteReq_mshr_misses::total       519641                       # number of WriteReq MSHR misses
system.cpu.dcache.demand_mshr_misses::cpu.data     12571080                       # number of demand (read+write) MSHR misses
system.cpu.dcache.demand_mshr_misses::total     12571080                       # number of demand (read+write) MSHR misses
system.cpu.dcache.overall_mshr_misses::cpu.data     12571080                       # number of overall MSHR misses
system.cpu.dcache.overall_mshr_misses::total     12571080                       # number of overall MSHR misses
system.cpu.dcache.ReadReq_mshr_miss_latency::cpu.data 873520082500                       # number of ReadReq MSHR miss cycles
system.cpu.dcache.ReadReq_mshr_miss_latency::total 873520082500                       # number of ReadReq MSHR miss cycles
system.cpu.dcache.WriteReq_mshr_miss_latency::cpu.data  36737752000                       # number of WriteReq MSHR miss cycles
system.cpu.dcache.WriteReq_mshr_miss_latency::total  36737752000                       # number of WriteReq MSHR miss cycles
system.cpu.dcache.demand_mshr_miss_latency::cpu.data 910257834500                       # number of demand (read+write) MSHR miss cycles
system.cpu.dcache.demand_mshr_miss_latency::total 910257834500                       # number of demand (read+write) MSHR miss cycles
system.cpu.dcache.overall_mshr_miss_latency::cpu.data 910257834500                       # number of overall MSHR miss cycles
system.cpu.dcache.overall_mshr_miss_latency::total 910257834500                       # number of overall MSHR miss cycles
system.cpu.dcache.ReadReq_mshr_miss_rate::cpu.data     0.054449                       # mshr miss rate for ReadReq accesses
system.cpu.dcache.ReadReq_mshr_miss_rate::total     0.054449                       # mshr miss rate for ReadReq accesses
system.cpu.dcache.WriteReq_mshr_miss_rate::cpu.data     0.007170                       # mshr miss rate for WriteReq accesses
system.cpu.dcache.WriteReq_mshr_miss_rate::total     0.007170                       # mshr miss rate for WriteReq accesses
system.cpu.dcache.demand_mshr_miss_rate::cpu.data     0.042786                       # mshr miss rate for demand accesses
system.cpu.dcache.demand_mshr_miss_rate::total     0.042786                       # mshr miss rate for demand accesses
system.cpu.dcache.overall_mshr_miss_rate::cpu.data     0.042786                       # mshr miss rate for overall accesses
system.cpu.dcache.overall_mshr_miss_rate::total     0.042786                       # mshr miss rate for overall accesses
system.cpu.dcache.ReadReq_avg_mshr_miss_latency::cpu.data 72482.637343                       # average ReadReq mshr miss latency
system.cpu.dcache.ReadReq_avg_mshr_miss_latency::total 72482.637343                       # average ReadReq mshr miss latency
system.cpu.dcache.WriteReq_avg_mshr_miss_latency::cpu.data 70698.332118                       # average WriteReq mshr miss latency
system.cpu.dcache.WriteReq_avg_mshr_miss_latency::total 70698.332118                       # average WriteReq mshr miss latency
system.cpu.dcache.demand_avg_mshr_miss_latency::cpu.data 72408.880900                       # average overall mshr miss latency
system.cpu.dcache.demand_avg_mshr_miss_latency::total 72408.880900                       # average overall mshr miss latency
system.cpu.dcache.overall_avg_mshr_miss_latency::cpu.data 72408.880900                       # average overall mshr miss latency
system.cpu.dcache.overall_avg_mshr_miss_latency::total 72408.880900                       # average overall mshr miss latency
system.cpu.dcache.no_allocate_misses                0                       # Number of misses that were no-allocate
system.cpu.dtb_walker_cache.tags.replacements            0                       # number of replacements
system.cpu.dtb_walker_cache.tags.tagsinuse            0                       # Cycle average of tags in use
system.cpu.dtb_walker_cache.tags.total_refs            0                       # Total number of references to valid blocks.
system.cpu.dtb_walker_cache.tags.sampled_refs            0                       # Sample count of references to valid blocks.
system.cpu.dtb_walker_cache.tags.avg_refs          nan                       # Average number of references to valid blocks.
system.cpu.dtb_walker_cache.tags.warmup_cycle            0                       # Cycle when the warmup percentage was hit.
system.cpu.dtb_walker_cache.tags.tag_accesses            0                       # Number of tag accesses
system.cpu.dtb_walker_cache.tags.data_accesses            0                       # Number of data accesses
system.cpu.dtb_walker_cache.blocked_cycles::no_mshrs            0                       # number of cycles access was blocked
system.cpu.dtb_walker_cache.blocked_cycles::no_targets            0                       # number of cycles access was blocked
system.cpu.dtb_walker_cache.blocked::no_mshrs            0                       # number of cycles access was blocked
system.cpu.dtb_walker_cache.blocked::no_targets            0                       # number of cycles access was blocked
system.cpu.dtb_walker_cache.avg_blocked_cycles::no_mshrs          nan                       # average number of cycles each access was blocked
system.cpu.dtb_walker_cache.avg_blocked_cycles::no_targets          nan                       # average number of cycles each access was blocked
system.cpu.dtb_walker_cache.fast_writes             0                       # number of fast writes performed
system.cpu.dtb_walker_cache.cache_copies            0                       # number of cache copies performed
system.cpu.dtb_walker_cache.no_allocate_misses            0                       # Number of misses that were no-allocate
system.cpu.icache.tags.replacements            575423                       # number of replacements
system.cpu.icache.tags.tagsinuse           700.667268                       # Cycle average of tags in use
system.cpu.icache.tags.total_refs           676741799                       # Total number of references to valid blocks.
system.cpu.icache.tags.sampled_refs            576147                       # Sample count of references to valid blocks.
system.cpu.icache.tags.avg_refs           1174.599189                       # Average number of references to valid blocks.
system.cpu.icache.tags.warmup_cycle                 0                       # Cycle when the warmup percentage was hit.
system.cpu.icache.tags.occ_blocks::cpu.inst   700.667268                       # Average occupied blocks per requestor
system.cpu.icache.tags.occ_percent::cpu.inst     0.684245                       # Average percentage of cache occupancy
system.cpu.icache.tags.occ_percent::total     0.684245                       # Average percentage of cache occupancy
system.cpu.icache.tags.occ_task_id_blocks::1024          724                       # Occupied blocks per task id
system.cpu.icache.tags.age_task_id_blocks_1024::4          724                       # Occupied blocks per task id
system.cpu.icache.tags.occ_task_id_percent::1024     0.707031                       # Percentage of cache occupancy per task id
system.cpu.icache.tags.tag_accesses         677894093                       # Number of tag accesses
system.cpu.icache.tags.data_accesses        677894093                       # Number of data accesses
system.cpu.icache.ReadReq_hits::cpu.inst    676741799                       # number of ReadReq hits
system.cpu.icache.ReadReq_hits::total       676741799                       # number of ReadReq hits
system.cpu.icache.demand_hits::cpu.inst     676741799                       # number of demand (read+write) hits
system.cpu.icache.demand_hits::total        676741799                       # number of demand (read+write) hits
system.cpu.icache.overall_hits::cpu.inst    676741799                       # number of overall hits
system.cpu.icache.overall_hits::total       676741799                       # number of overall hits
system.cpu.icache.ReadReq_misses::cpu.inst       576147                       # number of ReadReq misses
system.cpu.icache.ReadReq_misses::total        576147                       # number of ReadReq misses
system.cpu.icache.demand_misses::cpu.inst       576147                       # number of demand (read+write) misses
system.cpu.icache.demand_misses::total         576147                       # number of demand (read+write) misses
system.cpu.icache.overall_misses::cpu.inst       576147                       # number of overall misses
system.cpu.icache.overall_misses::total        576147                       # number of overall misses
system.cpu.icache.ReadReq_miss_latency::cpu.inst   7576632000                       # number of ReadReq miss cycles
system.cpu.icache.ReadReq_miss_latency::total   7576632000                       # number of ReadReq miss cycles
system.cpu.icache.demand_miss_latency::cpu.inst   7576632000                       # number of demand (read+write) miss cycles
system.cpu.icache.demand_miss_latency::total   7576632000                       # number of demand (read+write) miss cycles
system.cpu.icache.overall_miss_latency::cpu.inst   7576632000                       # number of overall miss cycles
system.cpu.icache.overall_miss_latency::total   7576632000                       # number of overall miss cycles
system.cpu.icache.ReadReq_accesses::cpu.inst    677317946                       # number of ReadReq accesses(hits+misses)
system.cpu.icache.ReadReq_accesses::total    677317946                       # number of ReadReq accesses(hits+misses)
system.cpu.icache.demand_accesses::cpu.inst    677317946                       # number of demand (read+write) accesses
system.cpu.icache.demand_accesses::total    677317946                       # number of demand (read+write) accesses
system.cpu.icache.overall_accesses::cpu.inst    677317946                       # number of overall (read+write) accesses
system.cpu.icache.overall_accesses::total    677317946                       # number of overall (read+write) accesses
system.cpu.icache.ReadReq_miss_rate::cpu.inst     0.000851                       # miss rate for ReadReq accesses
system.cpu.icache.ReadReq_miss_rate::total     0.000851                       # miss rate for ReadReq accesses
system.cpu.icache.demand_miss_rate::cpu.inst     0.000851                       # miss rate for demand accesses
system.cpu.icache.demand_miss_rate::total     0.000851                       # miss rate for demand accesses
system.cpu.icache.overall_miss_rate::cpu.inst     0.000851                       # miss rate for overall accesses
system.cpu.icache.overall_miss_rate::total     0.000851                       # miss rate for overall accesses
system.cpu.icache.ReadReq_avg_miss_latency::cpu.inst 13150.518878                       # average ReadReq miss latency
system.cpu.icache.ReadReq_avg_miss_latency::total 13150.518878                       # average ReadReq miss latency
system.cpu.icache.demand_avg_miss_latency::cpu.inst 13150.518878                       # average overall miss latency
system.cpu.icache.demand_avg_miss_latency::total 13150.518878                       # average overall miss latency
system.cpu.icache.overall_avg_miss_latency::cpu.inst 13150.518878                       # average overall miss latency
system.cpu.icache.overall_avg_miss_latency::total 13150.518878                       # average overall miss latency
system.cpu.icache.blocked_cycles::no_mshrs            0                       # number of cycles access was blocked
system.cpu.icache.blocked_cycles::no_targets            0                       # number of cycles access was blocked
system.cpu.icache.blocked::no_mshrs                 0                       # number of cycles access was blocked
system.cpu.icache.blocked::no_targets               0                       # number of cycles access was blocked
system.cpu.icache.avg_blocked_cycles::no_mshrs          nan                       # average number of cycles each access was blocked
system.cpu.icache.avg_blocked_cycles::no_targets          nan                       # average number of cycles each access was blocked
system.cpu.icache.fast_writes                       0                       # number of fast writes performed
system.cpu.icache.cache_copies                      0                       # number of cache copies performed
system.cpu.icache.writebacks::writebacks       575423                       # number of writebacks
system.cpu.icache.writebacks::total            575423                       # number of writebacks
system.cpu.icache.ReadReq_mshr_misses::cpu.inst       576147                       # number of ReadReq MSHR misses
system.cpu.icache.ReadReq_mshr_misses::total       576147                       # number of ReadReq MSHR misses
system.cpu.icache.demand_mshr_misses::cpu.inst       576147                       # number of demand (read+write) MSHR misses
system.cpu.icache.demand_mshr_misses::total       576147                       # number of demand (read+write) MSHR misses
system.cpu.icache.overall_mshr_misses::cpu.inst       576147                       # number of overall MSHR misses
system.cpu.icache.overall_mshr_misses::total       576147                       # number of overall MSHR misses
system.cpu.icache.ReadReq_mshr_miss_latency::cpu.inst   7000485000                       # number of ReadReq MSHR miss cycles
system.cpu.icache.ReadReq_mshr_miss_latency::total   7000485000                       # number of ReadReq MSHR miss cycles
system.cpu.icache.demand_mshr_miss_latency::cpu.inst   7000485000                       # number of demand (read+write) MSHR miss cycles
system.cpu.icache.demand_mshr_miss_latency::total   7000485000                       # number of demand (read+write) MSHR miss cycles
system.cpu.icache.overall_mshr_miss_latency::cpu.inst   7000485000                       # number of overall MSHR miss cycles
system.cpu.icache.overall_mshr_miss_latency::total   7000485000                       # number of overall MSHR miss cycles
system.cpu.icache.ReadReq_mshr_miss_rate::cpu.inst     0.000851                       # mshr miss rate for ReadReq accesses
system.cpu.icache.ReadReq_mshr_miss_rate::total     0.000851                       # mshr miss rate for ReadReq accesses
system.cpu.icache.demand_mshr_miss_rate::cpu.inst     0.000851                       # mshr miss rate for demand accesses
system.cpu.icache.demand_mshr_miss_rate::total     0.000851                       # mshr miss rate for demand accesses
system.cpu.icache.overall_mshr_miss_rate::cpu.inst     0.000851                       # mshr miss rate for overall accesses
system.cpu.icache.overall_mshr_miss_rate::total     0.000851                       # mshr miss rate for overall accesses
system.cpu.icache.ReadReq_avg_mshr_miss_latency::cpu.inst 12150.518878                       # average ReadReq mshr miss latency
system.cpu.icache.ReadReq_avg_mshr_miss_latency::total 12150.518878                       # average ReadReq mshr miss latency
system.cpu.icache.demand_avg_mshr_miss_latency::cpu.inst 12150.518878                       # average overall mshr miss latency
system.cpu.icache.demand_avg_mshr_miss_latency::total 12150.518878                       # average overall mshr miss latency
system.cpu.icache.overall_avg_mshr_miss_latency::cpu.inst 12150.518878                       # average overall mshr miss latency
system.cpu.icache.overall_avg_mshr_miss_latency::total 12150.518878                       # average overall mshr miss latency
system.cpu.icache.no_allocate_misses                0                       # Number of misses that were no-allocate
system.cpu.itb_walker_cache.tags.replacements            0                       # number of replacements
system.cpu.itb_walker_cache.tags.tagsinuse            0                       # Cycle average of tags in use
system.cpu.itb_walker_cache.tags.total_refs            0                       # Total number of references to valid blocks.
system.cpu.itb_walker_cache.tags.sampled_refs            0                       # Sample count of references to valid blocks.
system.cpu.itb_walker_cache.tags.avg_refs          nan                       # Average number of references to valid blocks.
system.cpu.itb_walker_cache.tags.warmup_cycle            0                       # Cycle when the warmup percentage was hit.
system.cpu.itb_walker_cache.tags.tag_accesses            0                       # Number of tag accesses
system.cpu.itb_walker_cache.tags.data_accesses            0                       # Number of data accesses
system.cpu.itb_walker_cache.blocked_cycles::no_mshrs            0                       # number of cycles access was blocked
system.cpu.itb_walker_cache.blocked_cycles::no_targets            0                       # number of cycles access was blocked
system.cpu.itb_walker_cache.blocked::no_mshrs            0                       # number of cycles access was blocked
system.cpu.itb_walker_cache.blocked::no_targets            0                       # number of cycles access was blocked
system.cpu.itb_walker_cache.avg_blocked_cycles::no_mshrs          nan                       # average number of cycles each access was blocked
system.cpu.itb_walker_cache.avg_blocked_cycles::no_targets          nan                       # average number of cycles each access was blocked
system.cpu.itb_walker_cache.fast_writes             0                       # number of fast writes performed
system.cpu.itb_walker_cache.cache_copies            0                       # number of cache copies performed
system.cpu.itb_walker_cache.no_allocate_misses            0                       # Number of misses that were no-allocate
system.l2.tags.replacements                  10445146                       # number of replacements
system.l2.tags.tagsinuse                 31940.080320                       # Cycle average of tags in use
system.l2.tags.total_refs                    14564181                       # Total number of references to valid blocks.
system.l2.tags.sampled_refs                  10477897                       # Sample count of references to valid blocks.
system.l2.tags.avg_refs                      1.389991                       # Average number of references to valid blocks.
system.l2.tags.warmup_cycle              1179901380500                       # Cycle when the warmup percentage was hit.
system.l2.tags.occ_blocks::writebacks     6243.351381                       # Average occupied blocks per requestor
system.l2.tags.occ_blocks::cpu.inst          4.394181                       # Average occupied blocks per requestor
system.l2.tags.occ_blocks::cpu.data      25692.334758                       # Average occupied blocks per requestor
system.l2.tags.occ_percent::writebacks       0.190532                       # Average percentage of cache occupancy
system.l2.tags.occ_percent::cpu.inst         0.000134                       # Average percentage of cache occupancy
system.l2.tags.occ_percent::cpu.data         0.784068                       # Average percentage of cache occupancy
system.l2.tags.occ_percent::total            0.974734                       # Average percentage of cache occupancy
system.l2.tags.occ_task_id_blocks::1024         32751                       # Occupied blocks per task id
system.l2.tags.age_task_id_blocks_1024::1          629                       # Occupied blocks per task id
system.l2.tags.age_task_id_blocks_1024::2         4871                       # Occupied blocks per task id
system.l2.tags.age_task_id_blocks_1024::3        18968                       # Occupied blocks per task id
system.l2.tags.age_task_id_blocks_1024::4         8283                       # Occupied blocks per task id
system.l2.tags.occ_task_id_percent::1024     0.999481                       # Percentage of cache occupancy per task id
system.l2.tags.tag_accesses                  37287171                       # Number of tag accesses
system.l2.tags.data_accesses                 37287171                       # Number of data accesses
system.l2.WritebackDirty_hits::writebacks      2278426                       # number of WritebackDirty hits
system.l2.WritebackDirty_hits::total          2278426                       # number of WritebackDirty hits
system.l2.WritebackClean_hits::writebacks       575422                       # number of WritebackClean hits
system.l2.WritebackClean_hits::total           575422                       # number of WritebackClean hits
system.l2.ReadExReq_hits::cpu.data              74392                       # number of ReadExReq hits
system.l2.ReadExReq_hits::total                 74392                       # number of ReadExReq hits
system.l2.ReadCleanReq_hits::cpu.inst          574856                       # number of ReadCleanReq hits
system.l2.ReadCleanReq_hits::total             574856                       # number of ReadCleanReq hits
system.l2.ReadSharedReq_hits::cpu.data        2178993                       # number of ReadSharedReq hits
system.l2.ReadSharedReq_hits::total           2178993                       # number of ReadSharedReq hits
system.l2.demand_hits::cpu.inst                574856                       # number of demand (read+write) hits
system.l2.demand_hits::cpu.data               2253385                       # number of demand (read+write) hits
system.l2.demand_hits::total                  2828241                       # number of demand (read+write) hits
system.l2.overall_hits::cpu.inst               574856                       # number of overall hits
system.l2.overall_hits::cpu.data              2253385                       # number of overall hits
system.l2.overall_hits::total                 2828241                       # number of overall hits
system.l2.ReadExReq_misses::cpu.data           445249                       # number of ReadExReq misses
system.l2.ReadExReq_misses::total              445249                       # number of ReadExReq misses
system.l2.ReadCleanReq_misses::cpu.inst          1291                       # number of ReadCleanReq misses
system.l2.ReadCleanReq_misses::total             1291                       # number of ReadCleanReq misses
system.l2.ReadSharedReq_misses::cpu.data      9872446                       # number of ReadSharedReq misses
system.l2.ReadSharedReq_misses::total         9872446                       # number of ReadSharedReq misses
system.l2.demand_misses::cpu.inst                1291                       # number of demand (read+write) misses
system.l2.demand_misses::cpu.data            10317695                       # number of demand (read+write) misses
system.l2.demand_misses::total               10318986                       # number of demand (read+write) misses
system.l2.overall_misses::cpu.inst               1291                       # number of overall misses
system.l2.overall_misses::cpu.data           10317695                       # number of overall misses
system.l2.overall_misses::total              10318986                       # number of overall misses
system.l2.ReadExReq_miss_latency::cpu.data  35177174500                       # number of ReadExReq miss cycles
system.l2.ReadExReq_miss_latency::total   35177174500                       # number of ReadExReq miss cycles
system.l2.ReadCleanReq_miss_latency::cpu.inst    100275500                       # number of ReadCleanReq miss cycles
system.l2.ReadCleanReq_miss_latency::total    100275500                       # number of ReadCleanReq miss cycles
system.l2.ReadSharedReq_miss_latency::cpu.data 832563497500                       # number of ReadSharedReq miss cycles
system.l2.ReadSharedReq_miss_latency::total 832563497500                       # number of ReadSharedReq miss cycles
system.l2.demand_miss_latency::cpu.inst     100275500                       # number of demand (read+write) miss cycles
system.l2.demand_miss_latency::cpu.data  867740672000                       # number of demand (read+write) miss cycles
system.l2.demand_miss_latency::total     867840947500                       # number of demand (read+write) miss cycles
system.l2.overall_miss_latency::cpu.inst    100275500                       # number of overall miss cycles
system.l2.overall_miss_latency::cpu.data 867740672000                       # number of overall miss cycles
system.l2.overall_miss_latency::total    867840947500                       # number of overall miss cycles
system.l2.WritebackDirty_accesses::writebacks      2278426                       # number of WritebackDirty accesses(hits+misses)
system.l2.WritebackDirty_accesses::total      2278426                       # number of WritebackDirty accesses(hits+misses)
system.l2.WritebackClean_accesses::writebacks       575422                       # number of WritebackClean accesses(hits+misses)
system.l2.WritebackClean_accesses::total       575422                       # number of WritebackClean accesses(hits+misses)
system.l2.ReadExReq_accesses::cpu.data         519641                       # number of ReadExReq accesses(hits+misses)
system.l2.ReadExReq_accesses::total            519641                       # number of ReadExReq accesses(hits+misses)
system.l2.ReadCleanReq_accesses::cpu.inst       576147                       # number of ReadCleanReq accesses(hits+misses)
system.l2.ReadCleanReq_accesses::total         576147                       # number of ReadCleanReq accesses(hits+misses)
system.l2.ReadSharedReq_accesses::cpu.data     12051439                       # number of ReadSharedReq accesses(hits+misses)
system.l2.ReadSharedReq_accesses::total      12051439                       # number of ReadSharedReq accesses(hits+misses)
system.l2.demand_accesses::cpu.inst            576147                       # number of demand (read+write) accesses
system.l2.demand_accesses::cpu.data          12571080                       # number of demand (read+write) accesses
system.l2.demand_accesses::total             13147227                       # number of demand (read+write) accesses
system.l2.overall_accesses::cpu.inst           576147                       # number of overall (read+write) accesses
system.l2.overall_accesses::cpu.data         12571080                       # number of overall (read+write) accesses
system.l2.overall_accesses::total            13147227                       # number of overall (read+write) accesses
system.l2.ReadExReq_miss_rate::cpu.data      0.856840                       # miss rate for ReadExReq accesses
system.l2.ReadExReq_miss_rate::total         0.856840                       # miss rate for ReadExReq accesses
system.l2.ReadCleanReq_miss_rate::cpu.inst     0.002241                       # miss rate for ReadCleanReq accesses
system.l2.ReadCleanReq_miss_rate::total      0.002241                       # miss rate for ReadCleanReq accesses
system.l2.ReadSharedReq_miss_rate::cpu.data     0.819192                       # miss rate for ReadSharedReq accesses
system.l2.ReadSharedReq_miss_rate::total     0.819192                       # miss rate for ReadSharedReq accesses
system.l2.demand_miss_rate::cpu.inst         0.002241                       # miss rate for demand accesses
system.l2.demand_miss_rate::cpu.data         0.820748                       # miss rate for demand accesses
system.l2.demand_miss_rate::total            0.784879                       # miss rate for demand accesses
system.l2.overall_miss_rate::cpu.inst        0.002241                       # miss rate for overall accesses
system.l2.overall_miss_rate::cpu.data        0.820748                       # miss rate for overall accesses
system.l2.overall_miss_rate::total           0.784879                       # miss rate for overall accesses
system.l2.ReadExReq_avg_miss_latency::cpu.data 79005.622697                       # average ReadExReq miss latency
system.l2.ReadExReq_avg_miss_latency::total 79005.622697                       # average ReadExReq miss latency
system.l2.ReadCleanReq_avg_miss_latency::cpu.inst 77672.734314                       # average ReadCleanReq miss latency
system.l2.ReadCleanReq_avg_miss_latency::total 77672.734314                       # average ReadCleanReq miss latency
system.l2.ReadSharedReq_avg_miss_latency::cpu.data 84332.038636                       # average ReadSharedReq miss latency
system.l2.ReadSharedReq_avg_miss_latency::total 84332.038636                       # average ReadSharedReq miss latency
system.l2.demand_avg_miss_latency::cpu.inst 77672.734314                       # average overall miss latency
system.l2.demand_avg_miss_latency::cpu.data 84102.182900                       # average overall miss latency
system.l2.demand_avg_miss_latency::total 84101.378517                       # average overall miss latency
system.l2.overall_avg_miss_latency::cpu.inst 77672.734314                       # average overall miss latency
system.l2.overall_avg_miss_latency::cpu.data 84102.182900                       # average overall miss latency
system.l2.overall_avg_miss_latency::total 84101.378517                       # average overall miss latency
system.l2.blocked_cycles::no_mshrs                  0                       # number of cycles access was blocked
system.l2.blocked_cycles::no_targets                0                       # number of cycles access was blocked
system.l2.blocked::no_mshrs                         0                       # number of cycles access was blocked
system.l2.blocked::no_targets                       0                       # number of cycles access was blocked
system.l2.avg_blocked_cycles::no_mshrs            nan                       # average number of cycles each access was blocked
system.l2.avg_blocked_cycles::no_targets          nan                       # average number of cycles each access was blocked
system.l2.fast_writes                               0                       # number of fast writes performed
system.l2.cache_copies                              0                       # number of cache copies performed
system.l2.writebacks::writebacks              1267018                       # number of writebacks
system.l2.writebacks::total                   1267018                       # number of writebacks
system.l2.CleanEvict_mshr_misses::writebacks       727894                       # number of CleanEvict MSHR misses
system.l2.CleanEvict_mshr_misses::total        727894                       # number of CleanEvict MSHR misses
system.l2.ReadExReq_mshr_misses::cpu.data       445249                       # number of ReadExReq MSHR misses
system.l2.ReadExReq_mshr_misses::total         445249                       # number of ReadExReq MSHR misses
system.l2.ReadCleanReq_mshr_misses::cpu.inst         1291                       # number of ReadCleanReq MSHR misses
system.l2.ReadCleanReq_mshr_misses::total         1291                       # number of ReadCleanReq MSHR misses
system.l2.ReadSharedReq_mshr_misses::cpu.data      9872446                       # number of ReadSharedReq MSHR misses
system.l2.ReadSharedReq_mshr_misses::total      9872446                       # number of ReadSharedReq MSHR misses
system.l2.demand_mshr_misses::cpu.inst           1291                       # number of demand (read+write) MSHR misses
system.l2.demand_mshr_misses::cpu.data       10317695                       # number of demand (read+write) MSHR misses
system.l2.demand_mshr_misses::total          10318986                       # number of demand (read+write) MSHR misses
system.l2.overall_mshr_misses::cpu.inst          1291                       # number of overall MSHR misses
system.l2.overall_mshr_misses::cpu.data      10317695                       # number of overall MSHR misses
system.l2.overall_mshr_misses::total         10318986                       # number of overall MSHR misses
system.l2.ReadExReq_mshr_miss_latency::cpu.data  30724684500                       # number of ReadExReq MSHR miss cycles
system.l2.ReadExReq_mshr_miss_latency::total  30724684500                       # number of ReadExReq MSHR miss cycles
system.l2.ReadCleanReq_mshr_miss_latency::cpu.inst     87365500                       # number of ReadCleanReq MSHR miss cycles
system.l2.ReadCleanReq_mshr_miss_latency::total     87365500                       # number of ReadCleanReq MSHR miss cycles
system.l2.ReadSharedReq_mshr_miss_latency::cpu.data 733839037500                       # number of ReadSharedReq MSHR miss cycles
system.l2.ReadSharedReq_mshr_miss_latency::total 733839037500                       # number of ReadSharedReq MSHR miss cycles
system.l2.demand_mshr_miss_latency::cpu.inst     87365500                       # number of demand (read+write) MSHR miss cycles
system.l2.demand_mshr_miss_latency::cpu.data 764563722000                       # number of demand (read+write) MSHR miss cycles
system.l2.demand_mshr_miss_latency::total 764651087500                       # number of demand (read+write) MSHR miss cycles
system.l2.overall_mshr_miss_latency::cpu.inst     87365500                       # number of overall MSHR miss cycles
system.l2.overall_mshr_miss_latency::cpu.data 764563722000                       # number of overall MSHR miss cycles
system.l2.overall_mshr_miss_latency::total 764651087500                       # number of overall MSHR miss cycles
system.l2.CleanEvict_mshr_miss_rate::writebacks          inf                       # mshr miss rate for CleanEvict accesses
system.l2.CleanEvict_mshr_miss_rate::total          inf                       # mshr miss rate for CleanEvict accesses
system.l2.ReadExReq_mshr_miss_rate::cpu.data     0.856840                       # mshr miss rate for ReadExReq accesses
system.l2.ReadExReq_mshr_miss_rate::total     0.856840                       # mshr miss rate for ReadExReq accesses
system.l2.ReadCleanReq_mshr_miss_rate::cpu.inst     0.002241                       # mshr miss rate for ReadCleanReq accesses
system.l2.ReadCleanReq_mshr_miss_rate::total     0.002241                       # mshr miss rate for ReadCleanReq accesses
system.l2.ReadSharedReq_mshr_miss_rate::cpu.data     0.819192                       # mshr miss rate for ReadSharedReq accesses
system.l2.ReadSharedReq_mshr_miss_rate::total     0.819192                       # mshr miss rate for ReadSharedReq accesses
system.l2.demand_mshr_miss_rate::cpu.inst     0.002241                       # mshr miss rate for demand accesses
system.l2.demand_mshr_miss_rate::cpu.data     0.820748                       # mshr miss rate for demand accesses
system.l2.demand_mshr_miss_rate::total       0.784879                       # mshr miss rate for demand accesses
system.l2.overall_mshr_miss_rate::cpu.inst     0.002241                       # mshr miss rate for overall accesses
system.l2.overall_mshr_miss_rate::cpu.data     0.820748                       # mshr miss rate for overall accesses
system.l2.overall_mshr_miss_rate::total      0.784879                       # mshr miss rate for overall accesses
system.l2.ReadExReq_avg_mshr_miss_latency::cpu.data 69005.622697                       # average ReadExReq mshr miss latency
system.l2.ReadExReq_avg_mshr_miss_latency::total 69005.622697                       # average ReadExReq mshr miss latency
system.l2.ReadCleanReq_avg_mshr_miss_latency::cpu.inst 67672.734314                       # average ReadCleanReq mshr miss latency
system.l2.ReadCleanReq_avg_mshr_miss_latency::total 67672.734314                       # average ReadCleanReq mshr miss latency
system.l2.ReadSharedReq_avg_mshr_miss_latency::cpu.data 74332.038636                       # average ReadSharedReq mshr miss latency
system.l2.ReadSharedReq_avg_mshr_miss_latency::total 74332.038636                       # average ReadSharedReq mshr miss latency
system.l2.demand_avg_mshr_miss_latency::cpu.inst 67672.734314                       # average overall mshr miss latency
system.l2.demand_avg_mshr_miss_latency::cpu.data 74102.182900                       # average overall mshr miss latency
system.l2.demand_avg_mshr_miss_latency::total 74101.378517                       # average overall mshr miss latency
system.l2.overall_avg_mshr_miss_latency::cpu.inst 67672.734314                       # average overall mshr miss latency
system.l2.overall_avg_mshr_miss_latency::cpu.data 74102.182900                       # average overall mshr miss latency
system.l2.overall_avg_mshr_miss_latency::total 74101.378517                       # average overall mshr miss latency
system.l2.no_allocate_misses                        0                       # Number of misses that were no-allocate
system.membus.trans_dist::ReadResp            9873737                       # Transaction distribution
system.membus.trans_dist::WritebackDirty      1267018                       # Transaction distribution
system.membus.trans_dist::CleanEvict          9018083                       # Transaction distribution
system.membus.trans_dist::ReadExReq            445249                       # Transaction distribution
system.membus.trans_dist::ReadExResp           445249                       # Transaction distribution
system.membus.trans_dist::ReadSharedReq       9873737                       # Transaction distribution
system.membus.pkt_count_system.l2.mem_side::system.mem_ctrls.port     30923073                       # Packet count per connected master and slave (bytes)
system.membus.pkt_count_system.l2.mem_side::total     30923073                       # Packet count per connected master and slave (bytes)
system.membus.pkt_count::total               30923073                       # Packet count per connected master and slave (bytes)
system.membus.pkt_size_system.l2.mem_side::system.mem_ctrls.port    370752128                       # Cumulative packet size per connected master and slave (bytes)
system.membus.pkt_size_system.l2.mem_side::total    370752128                       # Cumulative packet size per connected master and slave (bytes)
system.membus.pkt_size::total               370752128                       # Cumulative packet size per connected master and slave (bytes)
system.membus.snoops                                0                       # Total snoops (count)
system.membus.snoop_fanout::samples          20604087                       # Request fanout histogram
system.membus.snoop_fanout::mean                    0                       # Request fanout histogram
system.membus.snoop_fanout::stdev                   0                       # Request fanout histogram
system.membus.snoop_fanout::underflows              0      0.00%      0.00% # Request fanout histogram
system.membus.snoop_fanout::0                20604087    100.00%    100.00% # Request fanout histogram
system.membus.snoop_fanout::1                       0      0.00%    100.00% # Request fanout histogram
system.membus.snoop_fanout::overflows               0      0.00%    100.00% # Request fanout histogram
system.membus.snoop_fanout::min_value               0                       # Request fanout histogram
system.membus.snoop_fanout::max_value               0                       # Request fanout histogram
system.membus.snoop_fanout::total            20604087                       # Request fanout histogram
system.membus.reqLayer2.occupancy         23149259000                       # Layer occupancy (ticks)
system.membus.reqLayer2.utilization               1.2                       # Layer utilization (%)
system.membus.respLayer1.occupancy        35630172500                       # Layer occupancy (ticks)
system.membus.respLayer1.utilization              1.9                       # Layer utilization (%)
system.tol2bus.snoop_filter.tot_requests     26289634                       # Total number of requests made to the snoop filter.
system.tol2bus.snoop_filter.hit_single_requests     13142407                       # Number of requests hitting in the snoop filter with a single holder of the requested data.
system.tol2bus.snoop_filter.hit_multi_requests            1                       # Number of requests hitting in the snoop filter with multiple (>1) holders of the requested data.
system.tol2bus.snoop_filter.tot_snoops         887939                       # Total number of snoops made to the snoop filter.
system.tol2bus.snoop_filter.hit_single_snoops       887939                       # Number of snoops hitting in the snoop filter with a single holder of the requested data.
system.tol2bus.snoop_filter.hit_multi_snoops            0                       # Number of snoops hitting in the snoop filter with multiple (>1) holders of the requested data.
system.tol2bus.trans_dist::ReadResp          12627586                       # Transaction distribution
system.tol2bus.trans_dist::WritebackDirty      3545444                       # Transaction distribution
system.tol2bus.trans_dist::WritebackClean       575422                       # Transaction distribution
system.tol2bus.trans_dist::CleanEvict        19466686                       # Transaction distribution
system.tol2bus.trans_dist::ReadExReq           519641                       # Transaction distribution
system.tol2bus.trans_dist::ReadExResp          519641                       # Transaction distribution
system.tol2bus.trans_dist::ReadCleanReq        576147                       # Transaction distribution
system.tol2bus.trans_dist::ReadSharedReq     12051439                       # Transaction distribution
system.tol2bus.pkt_count_system.cpu.icache.mem_side::system.l2.cpu_side      1727716                       # Packet count per connected master and slave (bytes)
system.tol2bus.pkt_count_system.cpu.dcache.mem_side::system.l2.cpu_side     37709144                       # Packet count per connected master and slave (bytes)
system.tol2bus.pkt_count::total              39436860                       # Packet count per connected master and slave (bytes)
system.tol2bus.pkt_size_system.cpu.icache.mem_side::system.l2.cpu_side     36850208                       # Cumulative packet size per connected master and slave (bytes)
system.tol2bus.pkt_size_system.cpu.dcache.mem_side::system.l2.cpu_side    475184192                       # Cumulative packet size per connected master and slave (bytes)
system.tol2bus.pkt_size::total              512034400                       # Cumulative packet size per connected master and slave (bytes)
system.tol2bus.snoops                        10445146                       # Total snoops (count)
system.tol2bus.snoop_fanout::samples         23592373                       # Request fanout histogram
system.tol2bus.snoop_fanout::mean            0.037637                       # Request fanout histogram
system.tol2bus.snoop_fanout::stdev           0.190316                       # Request fanout histogram
system.tol2bus.snoop_fanout::underflows             0      0.00%      0.00% # Request fanout histogram
system.tol2bus.snoop_fanout::0               22704433     96.24%     96.24% # Request fanout histogram
system.tol2bus.snoop_fanout::1                 887940      3.76%    100.00% # Request fanout histogram
system.tol2bus.snoop_fanout::2                      0      0.00%    100.00% # Request fanout histogram
system.tol2bus.snoop_fanout::3                      0      0.00%    100.00% # Request fanout histogram
system.tol2bus.snoop_fanout::4                      0      0.00%    100.00% # Request fanout histogram
system.tol2bus.snoop_fanout::overflows              0      0.00%    100.00% # Request fanout histogram
system.tol2bus.snoop_fanout::min_value              0                       # Request fanout histogram
system.tol2bus.snoop_fanout::max_value              1                       # Request fanout histogram
system.tol2bus.snoop_fanout::total           23592373                       # Request fanout histogram
system.tol2bus.reqLayer0.occupancy        14571741500                       # Layer occupancy (ticks)
system.tol2bus.reqLayer0.utilization              0.8                       # Layer utilization (%)
system.tol2bus.respLayer0.occupancy         576147000                       # Layer occupancy (ticks)
system.tol2bus.respLayer0.utilization             0.0                       # Layer utilization (%)
system.tol2bus.respLayer1.occupancy       12571080000                       # Layer occupancy (ticks)
system.tol2bus.respLayer1.utilization             0.7                       # Layer utilization (%)

---------- End Simulation Statistics   ----------
