
---------- Begin Simulation Statistics ----------
sim_seconds                                  1.657218                       # Number of seconds simulated
sim_ticks                                1657218424500                       # Number of ticks simulated
final_tick                               1657218424500                       # Number of ticks from beginning of simulation (restored from checkpoints and never reset)
sim_freq                                 1000000000000                       # Frequency of simulated ticks
host_inst_rate                                 186971                       # Simulator instruction rate (inst/s)
host_op_rate                                   327690                       # Simulator op (including micro ops) rate (op/s)
host_tick_rate                              619703203                       # Simulator tick rate (ticks/s)
host_mem_usage                                 821560                       # Number of bytes of host memory used
host_seconds                                  2674.21                       # Real time elapsed on the host
sim_insts                                   500000000                       # Number of instructions simulated
sim_ops                                     876313783                       # Number of ops (including micro ops) simulated
system.voltage_domain.voltage                       1                       # Voltage in Volts
system.clk_domain.clock                          1000                       # Clock period in ticks
system.mem_ctrls.bytes_read::cpu.inst           43136                       # Number of bytes read from this memory
system.mem_ctrls.bytes_read::cpu.data       423177152                       # Number of bytes read from this memory
system.mem_ctrls.bytes_read::total          423220288                       # Number of bytes read from this memory
system.mem_ctrls.bytes_inst_read::cpu.inst        43136                       # Number of instructions bytes read from this memory
system.mem_ctrls.bytes_inst_read::total         43136                       # Number of instructions bytes read from this memory
system.mem_ctrls.bytes_written::writebacks     72311616                       # Number of bytes written to this memory
system.mem_ctrls.bytes_written::total        72311616                       # Number of bytes written to this memory
system.mem_ctrls.num_reads::cpu.inst              674                       # Number of read requests responded to by this memory
system.mem_ctrls.num_reads::cpu.data          6612143                       # Number of read requests responded to by this memory
system.mem_ctrls.num_reads::total             6612817                       # Number of read requests responded to by this memory
system.mem_ctrls.num_writes::writebacks       1129869                       # Number of write requests responded to by this memory
system.mem_ctrls.num_writes::total            1129869                       # Number of write requests responded to by this memory
system.mem_ctrls.bw_read::cpu.inst              26029                       # Total read bandwidth from this memory (bytes/s)
system.mem_ctrls.bw_read::cpu.data          255353878                       # Total read bandwidth from this memory (bytes/s)
system.mem_ctrls.bw_read::total             255379908                       # Total read bandwidth from this memory (bytes/s)
system.mem_ctrls.bw_inst_read::cpu.inst         26029                       # Instruction read bandwidth from this memory (bytes/s)
system.mem_ctrls.bw_inst_read::total            26029                       # Instruction read bandwidth from this memory (bytes/s)
system.mem_ctrls.bw_write::writebacks        43634330                       # Write bandwidth from this memory (bytes/s)
system.mem_ctrls.bw_write::total             43634330                       # Write bandwidth from this memory (bytes/s)
system.mem_ctrls.bw_total::writebacks        43634330                       # Total bandwidth to/from this memory (bytes/s)
system.mem_ctrls.bw_total::cpu.inst             26029                       # Total bandwidth to/from this memory (bytes/s)
system.mem_ctrls.bw_total::cpu.data         255353878                       # Total bandwidth to/from this memory (bytes/s)
system.mem_ctrls.bw_total::total            299014238                       # Total bandwidth to/from this memory (bytes/s)
system.mem_ctrls.readReqs                     6612817                       # Number of read requests accepted
system.mem_ctrls.writeReqs                    1129869                       # Number of write requests accepted
system.mem_ctrls.readBursts                   6612817                       # Number of DRAM read bursts, including those serviced by the write queue
system.mem_ctrls.writeBursts                  1129869                       # Number of DRAM write bursts, including those merged in the write queue
system.mem_ctrls.bytesReadDRAM              422139712                       # Total number of bytes read from DRAM
system.mem_ctrls.bytesReadWrQ                 1080576                       # Total number of bytes read from write queue
system.mem_ctrls.bytesWritten                72304960                       # Total number of bytes written to DRAM
system.mem_ctrls.bytesReadSys               423220288                       # Total read bytes from the system interface side
system.mem_ctrls.bytesWrittenSys             72311616                       # Total written bytes from the system interface side
system.mem_ctrls.servicedByWrQ                  16884                       # Number of DRAM read bursts serviced by the write queue
system.mem_ctrls.mergedWrBursts                    88                       # Number of DRAM write bursts merged with an existing one
system.mem_ctrls.neitherReadNorWriteReqs      5465858                       # Number of requests that are neither read nor write
system.mem_ctrls.perBankRdBursts::0            424117                       # Per bank write bursts
system.mem_ctrls.perBankRdBursts::1            405933                       # Per bank write bursts
system.mem_ctrls.perBankRdBursts::2            407597                       # Per bank write bursts
system.mem_ctrls.perBankRdBursts::3            429112                       # Per bank write bursts
system.mem_ctrls.perBankRdBursts::4            401160                       # Per bank write bursts
system.mem_ctrls.perBankRdBursts::5            403212                       # Per bank write bursts
system.mem_ctrls.perBankRdBursts::6            414485                       # Per bank write bursts
system.mem_ctrls.perBankRdBursts::7            401090                       # Per bank write bursts
system.mem_ctrls.perBankRdBursts::8            404866                       # Per bank write bursts
system.mem_ctrls.perBankRdBursts::9            404280                       # Per bank write bursts
system.mem_ctrls.perBankRdBursts::10           405775                       # Per bank write bursts
system.mem_ctrls.perBankRdBursts::11           409624                       # Per bank write bursts
system.mem_ctrls.perBankRdBursts::12           421339                       # Per bank write bursts
system.mem_ctrls.perBankRdBursts::13           424750                       # Per bank write bursts
system.mem_ctrls.perBankRdBursts::14           417665                       # Per bank write bursts
system.mem_ctrls.perBankRdBursts::15           420928                       # Per bank write bursts
system.mem_ctrls.perBankWrBursts::0             72499                       # Per bank write bursts
system.mem_ctrls.perBankWrBursts::1             71951                       # Per bank write bursts
system.mem_ctrls.perBankWrBursts::2             71871                       # Per bank write bursts
system.mem_ctrls.perBankWrBursts::3             77293                       # Per bank write bursts
system.mem_ctrls.perBankWrBursts::4             70297                       # Per bank write bursts
system.mem_ctrls.perBankWrBursts::5             67051                       # Per bank write bursts
system.mem_ctrls.perBankWrBursts::6             71529                       # Per bank write bursts
system.mem_ctrls.perBankWrBursts::7             66678                       # Per bank write bursts
system.mem_ctrls.perBankWrBursts::8             67581                       # Per bank write bursts
system.mem_ctrls.perBankWrBursts::9             66413                       # Per bank write bursts
system.mem_ctrls.perBankWrBursts::10            66893                       # Per bank write bursts
system.mem_ctrls.perBankWrBursts::11            70157                       # Per bank write bursts
system.mem_ctrls.perBankWrBursts::12            72502                       # Per bank write bursts
system.mem_ctrls.perBankWrBursts::13            72755                       # Per bank write bursts
system.mem_ctrls.perBankWrBursts::14            72030                       # Per bank write bursts
system.mem_ctrls.perBankWrBursts::15            72265                       # Per bank write bursts
system.mem_ctrls.numRdRetry                         0                       # Number of times read queue was full causing retry
system.mem_ctrls.numWrRetry                         0                       # Number of times write queue was full causing retry
system.mem_ctrls.totGap                  1657201961500                       # Total gap between requests
system.mem_ctrls.readPktSize::0                     0                       # Read request sizes (log2)
system.mem_ctrls.readPktSize::1                     0                       # Read request sizes (log2)
system.mem_ctrls.readPktSize::2                     0                       # Read request sizes (log2)
system.mem_ctrls.readPktSize::3                     0                       # Read request sizes (log2)
system.mem_ctrls.readPktSize::4                     0                       # Read request sizes (log2)
system.mem_ctrls.readPktSize::5                     0                       # Read request sizes (log2)
system.mem_ctrls.readPktSize::6               6612817                       # Read request sizes (log2)
system.mem_ctrls.writePktSize::0                    0                       # Write request sizes (log2)
system.mem_ctrls.writePktSize::1                    0                       # Write request sizes (log2)
system.mem_ctrls.writePktSize::2                    0                       # Write request sizes (log2)
system.mem_ctrls.writePktSize::3                    0                       # Write request sizes (log2)
system.mem_ctrls.writePktSize::4                    0                       # Write request sizes (log2)
system.mem_ctrls.writePktSize::5                    0                       # Write request sizes (log2)
system.mem_ctrls.writePktSize::6              1129869                       # Write request sizes (log2)
system.mem_ctrls.rdQLenPdf::0                 6595933                       # What read queue length does an incoming req see
system.mem_ctrls.rdQLenPdf::1                       0                       # What read queue length does an incoming req see
system.mem_ctrls.rdQLenPdf::2                       0                       # What read queue length does an incoming req see
system.mem_ctrls.rdQLenPdf::3                       0                       # What read queue length does an incoming req see
system.mem_ctrls.rdQLenPdf::4                       0                       # What read queue length does an incoming req see
system.mem_ctrls.rdQLenPdf::5                       0                       # What read queue length does an incoming req see
system.mem_ctrls.rdQLenPdf::6                       0                       # What read queue length does an incoming req see
system.mem_ctrls.rdQLenPdf::7                       0                       # What read queue length does an incoming req see
system.mem_ctrls.rdQLenPdf::8                       0                       # What read queue length does an incoming req see
system.mem_ctrls.rdQLenPdf::9                       0                       # What read queue length does an incoming req see
system.mem_ctrls.rdQLenPdf::10                      0                       # What read queue length does an incoming req see
system.mem_ctrls.rdQLenPdf::11                      0                       # What read queue length does an incoming req see
system.mem_ctrls.rdQLenPdf::12                      0                       # What read queue length does an incoming req see
system.mem_ctrls.rdQLenPdf::13                      0                       # What read queue length does an incoming req see
system.mem_ctrls.rdQLenPdf::14                      0                       # What read queue length does an incoming req see
system.mem_ctrls.rdQLenPdf::15                      0                       # What read queue length does an incoming req see
system.mem_ctrls.rdQLenPdf::16                      0                       # What read queue length does an incoming req see
system.mem_ctrls.rdQLenPdf::17                      0                       # What read queue length does an incoming req see
system.mem_ctrls.rdQLenPdf::18                      0                       # What read queue length does an incoming req see
system.mem_ctrls.rdQLenPdf::19                      0                       # What read queue length does an incoming req see
system.mem_ctrls.rdQLenPdf::20                      0                       # What read queue length does an incoming req see
system.mem_ctrls.rdQLenPdf::21                      0                       # What read queue length does an incoming req see
system.mem_ctrls.rdQLenPdf::22                      0                       # What read queue length does an incoming req see
system.mem_ctrls.rdQLenPdf::23                      0                       # What read queue length does an incoming req see
system.mem_ctrls.rdQLenPdf::24                      0                       # What read queue length does an incoming req see
system.mem_ctrls.rdQLenPdf::25                      0                       # What read queue length does an incoming req see
system.mem_ctrls.rdQLenPdf::26                      0                       # What read queue length does an incoming req see
system.mem_ctrls.rdQLenPdf::27                      0                       # What read queue length does an incoming req see
system.mem_ctrls.rdQLenPdf::28                      0                       # What read queue length does an incoming req see
system.mem_ctrls.rdQLenPdf::29                      0                       # What read queue length does an incoming req see
system.mem_ctrls.rdQLenPdf::30                      0                       # What read queue length does an incoming req see
system.mem_ctrls.rdQLenPdf::31                      0                       # What read queue length does an incoming req see
system.mem_ctrls.wrQLenPdf::0                       1                       # What write queue length does an incoming req see
system.mem_ctrls.wrQLenPdf::1                       1                       # What write queue length does an incoming req see
system.mem_ctrls.wrQLenPdf::2                       1                       # What write queue length does an incoming req see
system.mem_ctrls.wrQLenPdf::3                       1                       # What write queue length does an incoming req see
system.mem_ctrls.wrQLenPdf::4                       1                       # What write queue length does an incoming req see
system.mem_ctrls.wrQLenPdf::5                       1                       # What write queue length does an incoming req see
system.mem_ctrls.wrQLenPdf::6                       1                       # What write queue length does an incoming req see
system.mem_ctrls.wrQLenPdf::7                       1                       # What write queue length does an incoming req see
system.mem_ctrls.wrQLenPdf::8                       1                       # What write queue length does an incoming req see
system.mem_ctrls.wrQLenPdf::9                       1                       # What write queue length does an incoming req see
system.mem_ctrls.wrQLenPdf::10                      1                       # What write queue length does an incoming req see
system.mem_ctrls.wrQLenPdf::11                      1                       # What write queue length does an incoming req see
system.mem_ctrls.wrQLenPdf::12                      1                       # What write queue length does an incoming req see
system.mem_ctrls.wrQLenPdf::13                      1                       # What write queue length does an incoming req see
system.mem_ctrls.wrQLenPdf::14                      1                       # What write queue length does an incoming req see
system.mem_ctrls.wrQLenPdf::15                  33915                       # What write queue length does an incoming req see
system.mem_ctrls.wrQLenPdf::16                  34941                       # What write queue length does an incoming req see
system.mem_ctrls.wrQLenPdf::17                  66230                       # What write queue length does an incoming req see
system.mem_ctrls.wrQLenPdf::18                  66322                       # What write queue length does an incoming req see
system.mem_ctrls.wrQLenPdf::19                  66315                       # What write queue length does an incoming req see
system.mem_ctrls.wrQLenPdf::20                  66311                       # What write queue length does an incoming req see
system.mem_ctrls.wrQLenPdf::21                  66304                       # What write queue length does an incoming req see
system.mem_ctrls.wrQLenPdf::22                  66296                       # What write queue length does an incoming req see
system.mem_ctrls.wrQLenPdf::23                  66300                       # What write queue length does an incoming req see
system.mem_ctrls.wrQLenPdf::24                  66293                       # What write queue length does an incoming req see
system.mem_ctrls.wrQLenPdf::25                  66348                       # What write queue length does an incoming req see
system.mem_ctrls.wrQLenPdf::26                  66294                       # What write queue length does an incoming req see
system.mem_ctrls.wrQLenPdf::27                  66353                       # What write queue length does an incoming req see
system.mem_ctrls.wrQLenPdf::28                  66356                       # What write queue length does an incoming req see
system.mem_ctrls.wrQLenPdf::29                  66306                       # What write queue length does an incoming req see
system.mem_ctrls.wrQLenPdf::30                  66304                       # What write queue length does an incoming req see
system.mem_ctrls.wrQLenPdf::31                  66288                       # What write queue length does an incoming req see
system.mem_ctrls.wrQLenPdf::32                  66288                       # What write queue length does an incoming req see
system.mem_ctrls.wrQLenPdf::33                      2                       # What write queue length does an incoming req see
system.mem_ctrls.wrQLenPdf::34                      0                       # What write queue length does an incoming req see
system.mem_ctrls.wrQLenPdf::35                      0                       # What write queue length does an incoming req see
system.mem_ctrls.wrQLenPdf::36                      0                       # What write queue length does an incoming req see
system.mem_ctrls.wrQLenPdf::37                      0                       # What write queue length does an incoming req see
system.mem_ctrls.wrQLenPdf::38                      0                       # What write queue length does an incoming req see
system.mem_ctrls.wrQLenPdf::39                      0                       # What write queue length does an incoming req see
system.mem_ctrls.wrQLenPdf::40                      0                       # What write queue length does an incoming req see
system.mem_ctrls.wrQLenPdf::41                      0                       # What write queue length does an incoming req see
system.mem_ctrls.wrQLenPdf::42                      0                       # What write queue length does an incoming req see
system.mem_ctrls.wrQLenPdf::43                      0                       # What write queue length does an incoming req see
system.mem_ctrls.wrQLenPdf::44                      0                       # What write queue length does an incoming req see
system.mem_ctrls.wrQLenPdf::45                      0                       # What write queue length does an incoming req see
system.mem_ctrls.wrQLenPdf::46                      0                       # What write queue length does an incoming req see
system.mem_ctrls.wrQLenPdf::47                      0                       # What write queue length does an incoming req see
system.mem_ctrls.wrQLenPdf::48                      0                       # What write queue length does an incoming req see
system.mem_ctrls.wrQLenPdf::49                      0                       # What write queue length does an incoming req see
system.mem_ctrls.wrQLenPdf::50                      0                       # What write queue length does an incoming req see
system.mem_ctrls.wrQLenPdf::51                      0                       # What write queue length does an incoming req see
system.mem_ctrls.wrQLenPdf::52                      0                       # What write queue length does an incoming req see
system.mem_ctrls.wrQLenPdf::53                      0                       # What write queue length does an incoming req see
system.mem_ctrls.wrQLenPdf::54                      0                       # What write queue length does an incoming req see
system.mem_ctrls.wrQLenPdf::55                      0                       # What write queue length does an incoming req see
system.mem_ctrls.wrQLenPdf::56                      0                       # What write queue length does an incoming req see
system.mem_ctrls.wrQLenPdf::57                      0                       # What write queue length does an incoming req see
system.mem_ctrls.wrQLenPdf::58                      0                       # What write queue length does an incoming req see
system.mem_ctrls.wrQLenPdf::59                      0                       # What write queue length does an incoming req see
system.mem_ctrls.wrQLenPdf::60                      0                       # What write queue length does an incoming req see
system.mem_ctrls.wrQLenPdf::61                      0                       # What write queue length does an incoming req see
system.mem_ctrls.wrQLenPdf::62                      0                       # What write queue length does an incoming req see
system.mem_ctrls.wrQLenPdf::63                      0                       # What write queue length does an incoming req see
system.mem_ctrls.bytesPerActivate::samples      5872513                       # Bytes accessed per row activation
system.mem_ctrls.bytesPerActivate::mean     84.196437                       # Bytes accessed per row activation
system.mem_ctrls.bytesPerActivate::gmean    71.038673                       # Bytes accessed per row activation
system.mem_ctrls.bytesPerActivate::stdev   109.865029                       # Bytes accessed per row activation
system.mem_ctrls.bytesPerActivate::0-127      5342917     90.98%     90.98% # Bytes accessed per row activation
system.mem_ctrls.bytesPerActivate::128-255       388426      6.61%     97.60% # Bytes accessed per row activation
system.mem_ctrls.bytesPerActivate::256-383        32507      0.55%     98.15% # Bytes accessed per row activation
system.mem_ctrls.bytesPerActivate::384-511        14404      0.25%     98.39% # Bytes accessed per row activation
system.mem_ctrls.bytesPerActivate::512-639        10388      0.18%     98.57% # Bytes accessed per row activation
system.mem_ctrls.bytesPerActivate::640-767         9720      0.17%     98.74% # Bytes accessed per row activation
system.mem_ctrls.bytesPerActivate::768-895        13270      0.23%     98.96% # Bytes accessed per row activation
system.mem_ctrls.bytesPerActivate::896-1023         8582      0.15%     99.11% # Bytes accessed per row activation
system.mem_ctrls.bytesPerActivate::1024-1151        52299      0.89%    100.00% # Bytes accessed per row activation
system.mem_ctrls.bytesPerActivate::total      5872513                       # Bytes accessed per row activation
system.mem_ctrls.rdPerTurnAround::samples        66288                       # Reads before turning the bus around for writes
system.mem_ctrls.rdPerTurnAround::mean      99.504103                       # Reads before turning the bus around for writes
system.mem_ctrls.rdPerTurnAround::gmean     56.393798                       # Reads before turning the bus around for writes
system.mem_ctrls.rdPerTurnAround::stdev    144.283974                       # Reads before turning the bus around for writes
system.mem_ctrls.rdPerTurnAround::0-255         58294     87.94%     87.94% # Reads before turning the bus around for writes
system.mem_ctrls.rdPerTurnAround::256-511         7255     10.94%     98.89% # Reads before turning the bus around for writes
system.mem_ctrls.rdPerTurnAround::512-767          383      0.58%     99.46% # Reads before turning the bus around for writes
system.mem_ctrls.rdPerTurnAround::768-1023          185      0.28%     99.74% # Reads before turning the bus around for writes
system.mem_ctrls.rdPerTurnAround::1024-1279           72      0.11%     99.85% # Reads before turning the bus around for writes
system.mem_ctrls.rdPerTurnAround::1280-1535           45      0.07%     99.92% # Reads before turning the bus around for writes
system.mem_ctrls.rdPerTurnAround::1536-1791           20      0.03%     99.95% # Reads before turning the bus around for writes
system.mem_ctrls.rdPerTurnAround::1792-2047           13      0.02%     99.97% # Reads before turning the bus around for writes
system.mem_ctrls.rdPerTurnAround::2048-2303            9      0.01%     99.98% # Reads before turning the bus around for writes
system.mem_ctrls.rdPerTurnAround::2304-2559            3      0.00%     99.99% # Reads before turning the bus around for writes
system.mem_ctrls.rdPerTurnAround::2560-2815            2      0.00%     99.99% # Reads before turning the bus around for writes
system.mem_ctrls.rdPerTurnAround::3072-3327            1      0.00%     99.99% # Reads before turning the bus around for writes
system.mem_ctrls.rdPerTurnAround::3328-3583            3      0.00%    100.00% # Reads before turning the bus around for writes
system.mem_ctrls.rdPerTurnAround::3840-4095            1      0.00%    100.00% # Reads before turning the bus around for writes
system.mem_ctrls.rdPerTurnAround::5120-5375            1      0.00%    100.00% # Reads before turning the bus around for writes
system.mem_ctrls.rdPerTurnAround::5888-6143            1      0.00%    100.00% # Reads before turning the bus around for writes
system.mem_ctrls.rdPerTurnAround::total         66288                       # Reads before turning the bus around for writes
system.mem_ctrls.wrPerTurnAround::samples        66288                       # Writes before turning the bus around for reads
system.mem_ctrls.wrPerTurnAround::mean      17.043281                       # Writes before turning the bus around for reads
system.mem_ctrls.wrPerTurnAround::gmean     17.013990                       # Writes before turning the bus around for reads
system.mem_ctrls.wrPerTurnAround::stdev      0.997552                       # Writes before turning the bus around for reads
system.mem_ctrls.wrPerTurnAround::16            31335     47.27%     47.27% # Writes before turning the bus around for reads
system.mem_ctrls.wrPerTurnAround::17             1021      1.54%     48.81% # Writes before turning the bus around for reads
system.mem_ctrls.wrPerTurnAround::18            33662     50.78%     99.59% # Writes before turning the bus around for reads
system.mem_ctrls.wrPerTurnAround::19              268      0.40%    100.00% # Writes before turning the bus around for reads
system.mem_ctrls.wrPerTurnAround::20                2      0.00%    100.00% # Writes before turning the bus around for reads
system.mem_ctrls.wrPerTurnAround::total         66288                       # Writes before turning the bus around for reads
system.mem_ctrls.totQLat                 150874239500                       # Total ticks spent queuing
system.mem_ctrls.totMemAccLat            274547983250                       # Total ticks spent from burst creation until serviced by the DRAM
system.mem_ctrls.totBusLat                32979665000                       # Total ticks spent in databus transfers
system.mem_ctrls.avgQLat                     22873.83                       # Average queueing delay per DRAM burst
system.mem_ctrls.avgBusLat                    5000.00                       # Average bus latency per DRAM burst
system.mem_ctrls.avgMemAccLat                41623.83                       # Average memory access latency per DRAM burst
system.mem_ctrls.avgRdBW                       254.73                       # Average DRAM read bandwidth in MiByte/s
system.mem_ctrls.avgWrBW                        43.63                       # Average achieved write bandwidth in MiByte/s
system.mem_ctrls.avgRdBWSys                    255.38                       # Average system read bandwidth in MiByte/s
system.mem_ctrls.avgWrBWSys                     43.63                       # Average system write bandwidth in MiByte/s
system.mem_ctrls.peakBW                      12800.00                       # Theoretical peak bandwidth in MiByte/s
system.mem_ctrls.busUtil                         2.33                       # Data bus utilization in percentage
system.mem_ctrls.busUtilRead                     1.99                       # Data bus utilization in percentage for reads
system.mem_ctrls.busUtilWrite                    0.34                       # Data bus utilization in percentage for writes
system.mem_ctrls.avgRdQLen                       1.00                       # Average read queue length when enqueuing
system.mem_ctrls.avgWrQLen                      24.83                       # Average write queue length when enqueuing
system.mem_ctrls.readRowHits                  1337265                       # Number of row buffer hits during reads
system.mem_ctrls.writeRowHits                  515920                       # Number of row buffer hits during writes
system.mem_ctrls.readRowHitRate                 20.27                       # Row buffer hit rate for reads
system.mem_ctrls.writeRowHitRate                45.67                       # Row buffer hit rate for writes
system.mem_ctrls.avgGap                     214034.50                       # Average gap between requests
system.mem_ctrls.pageHitRate                    23.99                       # Row buffer hit rate, read and write combined
system.mem_ctrls_0.actEnergy              22153824000                       # Energy for activate commands per rank (pJ)
system.mem_ctrls_0.preEnergy              12087900000                       # Energy for precharge commands per rank (pJ)
system.mem_ctrls_0.readEnergy             25636306800                       # Energy for read commands per rank (pJ)
system.mem_ctrls_0.writeEnergy             3688215120                       # Energy for write commands per rank (pJ)
system.mem_ctrls_0.refreshEnergy         108241401840                       # Energy for refresh commands per rank (pJ)
system.mem_ctrls_0.actBackEnergy         866837734065                       # Energy for active background per rank (pJ)
system.mem_ctrls_0.preBackEnergy         233946768750                       # Energy for precharge background per rank (pJ)
system.mem_ctrls_0.totalEnergy           1272592150575                       # Total energy per rank (pJ)
system.mem_ctrls_0.averagePower            767.908760                       # Core power per rank (mW)
system.mem_ctrls_0.memoryStateTime::IDLE 383955821250                       # Time in different power states
system.mem_ctrls_0.memoryStateTime::REF   55338140000                       # Time in different power states
system.mem_ctrls_0.memoryStateTime::PRE_PDN            0                       # Time in different power states
system.mem_ctrls_0.memoryStateTime::ACT  1217923962500                       # Time in different power states
system.mem_ctrls_0.memoryStateTime::ACT_PDN            0                       # Time in different power states
system.mem_ctrls_1.actEnergy              22242374280                       # Energy for activate commands per rank (pJ)
system.mem_ctrls_1.preEnergy              12136216125                       # Energy for precharge commands per rank (pJ)
system.mem_ctrls_1.readEnergy             25811970600                       # Energy for read commands per rank (pJ)
system.mem_ctrls_1.writeEnergy             3632662080                       # Energy for write commands per rank (pJ)
system.mem_ctrls_1.refreshEnergy         108241401840                       # Energy for refresh commands per rank (pJ)
system.mem_ctrls_1.actBackEnergy         863462409525                       # Energy for active background per rank (pJ)
system.mem_ctrls_1.preBackEnergy         236907579750                       # Energy for precharge background per rank (pJ)
system.mem_ctrls_1.totalEnergy           1272434614200                       # Total energy per rank (pJ)
system.mem_ctrls_1.averagePower            767.813699                       # Core power per rank (mW)
system.mem_ctrls_1.memoryStateTime::IDLE 388545896250                       # Time in different power states
system.mem_ctrls_1.memoryStateTime::REF   55338140000                       # Time in different power states
system.mem_ctrls_1.memoryStateTime::PRE_PDN            0                       # Time in different power states
system.mem_ctrls_1.memoryStateTime::ACT  1213333887500                       # Time in different power states
system.mem_ctrls_1.memoryStateTime::ACT_PDN            0                       # Time in different power states
system.cpu_voltage_domain.voltage                   1                       # Voltage in Volts
system.cpu_clk_domain.clock                       500                       # Clock period in ticks
system.cpu.apic_clk_domain.clock                 8000                       # Clock period in ticks
system.cpu.workload.num_syscalls                  168                       # Number of system calls
system.cpu.numCycles                       3314436849                       # number of cpu cycles simulated
system.cpu.numWorkItemsStarted                      0                       # number of work items this cpu started
system.cpu.numWorkItemsCompleted                    0                       # number of work items this cpu completed
system.cpu.committedInsts                   500000000                       # Number of instructions committed
system.cpu.committedOps                     876313783                       # Number of ops (including micro ops) committed
system.cpu.num_int_alu_accesses             872966680                       # Number of integer alu accesses
system.cpu.num_fp_alu_accesses                2882231                       # Number of float alu accesses
system.cpu.num_func_calls                    11025254                       # number of times a function call or return occured
system.cpu.num_conditional_control_insts     75981009                       # number of instructions that are conditional controls
system.cpu.num_int_insts                    872966680                       # number of integer instructions
system.cpu.num_fp_insts                       2882231                       # number of float instructions
system.cpu.num_int_register_reads          1835046958                       # number of times the integer registers were read
system.cpu.num_int_register_writes          703076418                       # number of times the integer registers were written
system.cpu.num_fp_register_reads              4386063                       # number of times the floating registers were read
system.cpu.num_fp_register_writes             2464405                       # number of times the floating registers were written
system.cpu.num_cc_register_reads            441654667                       # number of times the CC registers were read
system.cpu.num_cc_register_writes           253505512                       # number of times the CC registers were written
system.cpu.num_mem_refs                     293763599                       # number of memory refs
system.cpu.num_load_insts                   221285042                       # Number of load instructions
system.cpu.num_store_insts                   72478557                       # Number of store instructions
system.cpu.num_idle_cycles                          0                       # Number of idle cycles
system.cpu.num_busy_cycles                 3314436849                       # Number of busy cycles
system.cpu.not_idle_fraction                        1                       # Percentage of non-idle cycles
system.cpu.idle_fraction                            0                       # Percentage of idle cycles
system.cpu.Branches                          97901001                       # Number of branches fetched
system.cpu.op_class::No_OpClass                939429      0.11%      0.11% # Class of executed instruction
system.cpu.op_class::IntAlu                 578420254     66.01%     66.11% # Class of executed instruction
system.cpu.op_class::IntMult                   907073      0.10%     66.22% # Class of executed instruction
system.cpu.op_class::IntDiv                        42      0.00%     66.22% # Class of executed instruction
system.cpu.op_class::FloatAdd                 2283386      0.26%     66.48% # Class of executed instruction
system.cpu.op_class::FloatCmp                       0      0.00%     66.48% # Class of executed instruction
system.cpu.op_class::FloatCvt                       0      0.00%     66.48% # Class of executed instruction
system.cpu.op_class::FloatMult                      0      0.00%     66.48% # Class of executed instruction
system.cpu.op_class::FloatDiv                       0      0.00%     66.48% # Class of executed instruction
system.cpu.op_class::FloatSqrt                      0      0.00%     66.48% # Class of executed instruction
system.cpu.op_class::SimdAdd                        0      0.00%     66.48% # Class of executed instruction
system.cpu.op_class::SimdAddAcc                     0      0.00%     66.48% # Class of executed instruction
system.cpu.op_class::SimdAlu                        0      0.00%     66.48% # Class of executed instruction
system.cpu.op_class::SimdCmp                        0      0.00%     66.48% # Class of executed instruction
system.cpu.op_class::SimdCvt                        0      0.00%     66.48% # Class of executed instruction
system.cpu.op_class::SimdMisc                       0      0.00%     66.48% # Class of executed instruction
system.cpu.op_class::SimdMult                       0      0.00%     66.48% # Class of executed instruction
system.cpu.op_class::SimdMultAcc                    0      0.00%     66.48% # Class of executed instruction
system.cpu.op_class::SimdShift                      0      0.00%     66.48% # Class of executed instruction
system.cpu.op_class::SimdShiftAcc                   0      0.00%     66.48% # Class of executed instruction
system.cpu.op_class::SimdSqrt                       0      0.00%     66.48% # Class of executed instruction
system.cpu.op_class::SimdFloatAdd                   0      0.00%     66.48% # Class of executed instruction
system.cpu.op_class::SimdFloatAlu                   0      0.00%     66.48% # Class of executed instruction
system.cpu.op_class::SimdFloatCmp                   0      0.00%     66.48% # Class of executed instruction
system.cpu.op_class::SimdFloatCvt                   0      0.00%     66.48% # Class of executed instruction
system.cpu.op_class::SimdFloatDiv                   0      0.00%     66.48% # Class of executed instruction
system.cpu.op_class::SimdFloatMisc                  0      0.00%     66.48% # Class of executed instruction
system.cpu.op_class::SimdFloatMult                  0      0.00%     66.48% # Class of executed instruction
system.cpu.op_class::SimdFloatMultAcc               0      0.00%     66.48% # Class of executed instruction
system.cpu.op_class::SimdFloatSqrt                  0      0.00%     66.48% # Class of executed instruction
system.cpu.op_class::MemRead                221285042     25.25%     91.73% # Class of executed instruction
system.cpu.op_class::MemWrite                72478557      8.27%    100.00% # Class of executed instruction
system.cpu.op_class::IprAccess                      0      0.00%    100.00% # Class of executed instruction
system.cpu.op_class::InstPrefetch                   0      0.00%    100.00% # Class of executed instruction
system.cpu.op_class::total                  876313783                       # Class of executed instruction
system.cpu.dcache.tags.replacements          12499794                       # number of replacements
system.cpu.dcache.tags.tagsinuse          1023.837184                       # Cycle average of tags in use
system.cpu.dcache.tags.total_refs           281276909                       # Total number of references to valid blocks.
system.cpu.dcache.tags.sampled_refs          12500818                       # Sample count of references to valid blocks.
system.cpu.dcache.tags.avg_refs             22.500680                       # Average number of references to valid blocks.
system.cpu.dcache.tags.warmup_cycle         669207500                       # Cycle when the warmup percentage was hit.
system.cpu.dcache.tags.occ_blocks::cpu.data  1023.837184                       # Average occupied blocks per requestor
system.cpu.dcache.tags.occ_percent::cpu.data     0.999841                       # Average percentage of cache occupancy
system.cpu.dcache.tags.occ_percent::total     0.999841                       # Average percentage of cache occupancy
system.cpu.dcache.tags.occ_task_id_blocks::1024         1024                       # Occupied blocks per task id
system.cpu.dcache.tags.age_task_id_blocks_1024::0            5                       # Occupied blocks per task id
system.cpu.dcache.tags.age_task_id_blocks_1024::1          651                       # Occupied blocks per task id
system.cpu.dcache.tags.age_task_id_blocks_1024::2          355                       # Occupied blocks per task id
system.cpu.dcache.tags.age_task_id_blocks_1024::3           11                       # Occupied blocks per task id
system.cpu.dcache.tags.age_task_id_blocks_1024::4            2                       # Occupied blocks per task id
system.cpu.dcache.tags.occ_task_id_percent::1024            1                       # Percentage of cache occupancy per task id
system.cpu.dcache.tags.tag_accesses        1187611726                       # Number of tag accesses
system.cpu.dcache.tags.data_accesses       1187611726                       # Number of data accesses
system.cpu.dcache.ReadReq_hits::cpu.data    209214781                       # number of ReadReq hits
system.cpu.dcache.ReadReq_hits::total       209214781                       # number of ReadReq hits
system.cpu.dcache.WriteReq_hits::cpu.data     72062128                       # number of WriteReq hits
system.cpu.dcache.WriteReq_hits::total       72062128                       # number of WriteReq hits
system.cpu.dcache.demand_hits::cpu.data     281276909                       # number of demand (read+write) hits
system.cpu.dcache.demand_hits::total        281276909                       # number of demand (read+write) hits
system.cpu.dcache.overall_hits::cpu.data    281276909                       # number of overall hits
system.cpu.dcache.overall_hits::total       281276909                       # number of overall hits
system.cpu.dcache.ReadReq_misses::cpu.data     12084388                       # number of ReadReq misses
system.cpu.dcache.ReadReq_misses::total      12084388                       # number of ReadReq misses
system.cpu.dcache.WriteReq_misses::cpu.data       416430                       # number of WriteReq misses
system.cpu.dcache.WriteReq_misses::total       416430                       # number of WriteReq misses
system.cpu.dcache.demand_misses::cpu.data     12500818                       # number of demand (read+write) misses
system.cpu.dcache.demand_misses::total       12500818                       # number of demand (read+write) misses
system.cpu.dcache.overall_misses::cpu.data     12500818                       # number of overall misses
system.cpu.dcache.overall_misses::total      12500818                       # number of overall misses
system.cpu.dcache.ReadReq_miss_latency::cpu.data 678379283500                       # number of ReadReq miss cycles
system.cpu.dcache.ReadReq_miss_latency::total 678379283500                       # number of ReadReq miss cycles
system.cpu.dcache.WriteReq_miss_latency::cpu.data  20197412500                       # number of WriteReq miss cycles
system.cpu.dcache.WriteReq_miss_latency::total  20197412500                       # number of WriteReq miss cycles
system.cpu.dcache.demand_miss_latency::cpu.data 698576696000                       # number of demand (read+write) miss cycles
system.cpu.dcache.demand_miss_latency::total 698576696000                       # number of demand (read+write) miss cycles
system.cpu.dcache.overall_miss_latency::cpu.data 698576696000                       # number of overall miss cycles
system.cpu.dcache.overall_miss_latency::total 698576696000                       # number of overall miss cycles
system.cpu.dcache.ReadReq_accesses::cpu.data    221299169                       # number of ReadReq accesses(hits+misses)
system.cpu.dcache.ReadReq_accesses::total    221299169                       # number of ReadReq accesses(hits+misses)
system.cpu.dcache.WriteReq_accesses::cpu.data     72478558                       # number of WriteReq accesses(hits+misses)
system.cpu.dcache.WriteReq_accesses::total     72478558                       # number of WriteReq accesses(hits+misses)
system.cpu.dcache.demand_accesses::cpu.data    293777727                       # number of demand (read+write) accesses
system.cpu.dcache.demand_accesses::total    293777727                       # number of demand (read+write) accesses
system.cpu.dcache.overall_accesses::cpu.data    293777727                       # number of overall (read+write) accesses
system.cpu.dcache.overall_accesses::total    293777727                       # number of overall (read+write) accesses
system.cpu.dcache.ReadReq_miss_rate::cpu.data     0.054607                       # miss rate for ReadReq accesses
system.cpu.dcache.ReadReq_miss_rate::total     0.054607                       # miss rate for ReadReq accesses
system.cpu.dcache.WriteReq_miss_rate::cpu.data     0.005746                       # miss rate for WriteReq accesses
system.cpu.dcache.WriteReq_miss_rate::total     0.005746                       # miss rate for WriteReq accesses
system.cpu.dcache.demand_miss_rate::cpu.data     0.042552                       # miss rate for demand accesses
system.cpu.dcache.demand_miss_rate::total     0.042552                       # miss rate for demand accesses
system.cpu.dcache.overall_miss_rate::cpu.data     0.042552                       # miss rate for overall accesses
system.cpu.dcache.overall_miss_rate::total     0.042552                       # miss rate for overall accesses
system.cpu.dcache.ReadReq_avg_miss_latency::cpu.data 56136.834029                       # average ReadReq miss latency
system.cpu.dcache.ReadReq_avg_miss_latency::total 56136.834029                       # average ReadReq miss latency
system.cpu.dcache.WriteReq_avg_miss_latency::cpu.data 48501.338760                       # average WriteReq miss latency
system.cpu.dcache.WriteReq_avg_miss_latency::total 48501.338760                       # average WriteReq miss latency
system.cpu.dcache.demand_avg_miss_latency::cpu.data 55882.478731                       # average overall miss latency
system.cpu.dcache.demand_avg_miss_latency::total 55882.478731                       # average overall miss latency
system.cpu.dcache.overall_avg_miss_latency::cpu.data 55882.478731                       # average overall miss latency
system.cpu.dcache.overall_avg_miss_latency::total 55882.478731                       # average overall miss latency
system.cpu.dcache.blocked_cycles::no_mshrs            0                       # number of cycles access was blocked
system.cpu.dcache.blocked_cycles::no_targets            0                       # number of cycles access was blocked
system.cpu.dcache.blocked::no_mshrs                 0                       # number of cycles access was blocked
system.cpu.dcache.blocked::no_targets               0                       # number of cycles access was blocked
system.cpu.dcache.avg_blocked_cycles::no_mshrs          nan                       # average number of cycles each access was blocked
system.cpu.dcache.avg_blocked_cycles::no_targets          nan                       # average number of cycles each access was blocked
system.cpu.dcache.fast_writes                       0                       # number of fast writes performed
system.cpu.dcache.cache_copies                      0                       # number of cache copies performed
system.cpu.dcache.writebacks::writebacks      3207071                       # number of writebacks
system.cpu.dcache.writebacks::total           3207071                       # number of writebacks
system.cpu.dcache.ReadReq_mshr_misses::cpu.data     12084388                       # number of ReadReq MSHR misses
system.cpu.dcache.ReadReq_mshr_misses::total     12084388                       # number of ReadReq MSHR misses
system.cpu.dcache.WriteReq_mshr_misses::cpu.data       416430                       # number of WriteReq MSHR misses
system.cpu.dcache.WriteReq_mshr_misses::total       416430                       # number of WriteReq MSHR misses
system.cpu.dcache.demand_mshr_misses::cpu.data     12500818                       # number of demand (read+write) MSHR misses
system.cpu.dcache.demand_mshr_misses::total     12500818                       # number of demand (read+write) MSHR misses
system.cpu.dcache.overall_mshr_misses::cpu.data     12500818                       # number of overall MSHR misses
system.cpu.dcache.overall_mshr_misses::total     12500818                       # number of overall MSHR misses
system.cpu.dcache.ReadReq_mshr_miss_latency::cpu.data 666294895500                       # number of ReadReq MSHR miss cycles
system.cpu.dcache.ReadReq_mshr_miss_latency::total 666294895500                       # number of ReadReq MSHR miss cycles
system.cpu.dcache.WriteReq_mshr_miss_latency::cpu.data  19780982500                       # number of WriteReq MSHR miss cycles
system.cpu.dcache.WriteReq_mshr_miss_latency::total  19780982500                       # number of WriteReq MSHR miss cycles
system.cpu.dcache.demand_mshr_miss_latency::cpu.data 686075878000                       # number of demand (read+write) MSHR miss cycles
system.cpu.dcache.demand_mshr_miss_latency::total 686075878000                       # number of demand (read+write) MSHR miss cycles
system.cpu.dcache.overall_mshr_miss_latency::cpu.data 686075878000                       # number of overall MSHR miss cycles
system.cpu.dcache.overall_mshr_miss_latency::total 686075878000                       # number of overall MSHR miss cycles
system.cpu.dcache.ReadReq_mshr_miss_rate::cpu.data     0.054607                       # mshr miss rate for ReadReq accesses
system.cpu.dcache.ReadReq_mshr_miss_rate::total     0.054607                       # mshr miss rate for ReadReq accesses
system.cpu.dcache.WriteReq_mshr_miss_rate::cpu.data     0.005746                       # mshr miss rate for WriteReq accesses
system.cpu.dcache.WriteReq_mshr_miss_rate::total     0.005746                       # mshr miss rate for WriteReq accesses
system.cpu.dcache.demand_mshr_miss_rate::cpu.data     0.042552                       # mshr miss rate for demand accesses
system.cpu.dcache.demand_mshr_miss_rate::total     0.042552                       # mshr miss rate for demand accesses
system.cpu.dcache.overall_mshr_miss_rate::cpu.data     0.042552                       # mshr miss rate for overall accesses
system.cpu.dcache.overall_mshr_miss_rate::total     0.042552                       # mshr miss rate for overall accesses
system.cpu.dcache.ReadReq_avg_mshr_miss_latency::cpu.data 55136.834029                       # average ReadReq mshr miss latency
system.cpu.dcache.ReadReq_avg_mshr_miss_latency::total 55136.834029                       # average ReadReq mshr miss latency
system.cpu.dcache.WriteReq_avg_mshr_miss_latency::cpu.data 47501.338760                       # average WriteReq mshr miss latency
system.cpu.dcache.WriteReq_avg_mshr_miss_latency::total 47501.338760                       # average WriteReq mshr miss latency
system.cpu.dcache.demand_avg_mshr_miss_latency::cpu.data 54882.478731                       # average overall mshr miss latency
system.cpu.dcache.demand_avg_mshr_miss_latency::total 54882.478731                       # average overall mshr miss latency
system.cpu.dcache.overall_avg_mshr_miss_latency::cpu.data 54882.478731                       # average overall mshr miss latency
system.cpu.dcache.overall_avg_mshr_miss_latency::total 54882.478731                       # average overall mshr miss latency
system.cpu.dcache.no_allocate_misses                0                       # Number of misses that were no-allocate
system.cpu.dtb_walker_cache.tags.replacements            0                       # number of replacements
system.cpu.dtb_walker_cache.tags.tagsinuse            0                       # Cycle average of tags in use
system.cpu.dtb_walker_cache.tags.total_refs            0                       # Total number of references to valid blocks.
system.cpu.dtb_walker_cache.tags.sampled_refs            0                       # Sample count of references to valid blocks.
system.cpu.dtb_walker_cache.tags.avg_refs          nan                       # Average number of references to valid blocks.
system.cpu.dtb_walker_cache.tags.warmup_cycle            0                       # Cycle when the warmup percentage was hit.
system.cpu.dtb_walker_cache.tags.tag_accesses            0                       # Number of tag accesses
system.cpu.dtb_walker_cache.tags.data_accesses            0                       # Number of data accesses
system.cpu.dtb_walker_cache.blocked_cycles::no_mshrs            0                       # number of cycles access was blocked
system.cpu.dtb_walker_cache.blocked_cycles::no_targets            0                       # number of cycles access was blocked
system.cpu.dtb_walker_cache.blocked::no_mshrs            0                       # number of cycles access was blocked
system.cpu.dtb_walker_cache.blocked::no_targets            0                       # number of cycles access was blocked
system.cpu.dtb_walker_cache.avg_blocked_cycles::no_mshrs          nan                       # average number of cycles each access was blocked
system.cpu.dtb_walker_cache.avg_blocked_cycles::no_targets          nan                       # average number of cycles each access was blocked
system.cpu.dtb_walker_cache.fast_writes             0                       # number of fast writes performed
system.cpu.dtb_walker_cache.cache_copies            0                       # number of cache copies performed
system.cpu.dtb_walker_cache.no_allocate_misses            0                       # Number of misses that were no-allocate
system.cpu.icache.tags.replacements                 0                       # number of replacements
system.cpu.icache.tags.tagsinuse           636.914045                       # Cycle average of tags in use
system.cpu.icache.tags.total_refs           677317271                       # Total number of references to valid blocks.
system.cpu.icache.tags.sampled_refs               675                       # Sample count of references to valid blocks.
system.cpu.icache.tags.avg_refs          1003432.994074                       # Average number of references to valid blocks.
system.cpu.icache.tags.warmup_cycle                 0                       # Cycle when the warmup percentage was hit.
system.cpu.icache.tags.occ_blocks::cpu.inst   636.914045                       # Average occupied blocks per requestor
system.cpu.icache.tags.occ_percent::cpu.inst     0.310993                       # Average percentage of cache occupancy
system.cpu.icache.tags.occ_percent::total     0.310993                       # Average percentage of cache occupancy
system.cpu.icache.tags.occ_task_id_blocks::1024          675                       # Occupied blocks per task id
system.cpu.icache.tags.age_task_id_blocks_1024::4          675                       # Occupied blocks per task id
system.cpu.icache.tags.occ_task_id_percent::1024     0.329590                       # Percentage of cache occupancy per task id
system.cpu.icache.tags.tag_accesses        5418544243                       # Number of tag accesses
system.cpu.icache.tags.data_accesses       5418544243                       # Number of data accesses
system.cpu.icache.ReadReq_hits::cpu.inst    677317271                       # number of ReadReq hits
system.cpu.icache.ReadReq_hits::total       677317271                       # number of ReadReq hits
system.cpu.icache.demand_hits::cpu.inst     677317271                       # number of demand (read+write) hits
system.cpu.icache.demand_hits::total        677317271                       # number of demand (read+write) hits
system.cpu.icache.overall_hits::cpu.inst    677317271                       # number of overall hits
system.cpu.icache.overall_hits::total       677317271                       # number of overall hits
system.cpu.icache.ReadReq_misses::cpu.inst          675                       # number of ReadReq misses
system.cpu.icache.ReadReq_misses::total           675                       # number of ReadReq misses
system.cpu.icache.demand_misses::cpu.inst          675                       # number of demand (read+write) misses
system.cpu.icache.demand_misses::total            675                       # number of demand (read+write) misses
system.cpu.icache.overall_misses::cpu.inst          675                       # number of overall misses
system.cpu.icache.overall_misses::total           675                       # number of overall misses
system.cpu.icache.ReadReq_miss_latency::cpu.inst     54615000                       # number of ReadReq miss cycles
system.cpu.icache.ReadReq_miss_latency::total     54615000                       # number of ReadReq miss cycles
system.cpu.icache.demand_miss_latency::cpu.inst     54615000                       # number of demand (read+write) miss cycles
system.cpu.icache.demand_miss_latency::total     54615000                       # number of demand (read+write) miss cycles
system.cpu.icache.overall_miss_latency::cpu.inst     54615000                       # number of overall miss cycles
system.cpu.icache.overall_miss_latency::total     54615000                       # number of overall miss cycles
system.cpu.icache.ReadReq_accesses::cpu.inst    677317946                       # number of ReadReq accesses(hits+misses)
system.cpu.icache.ReadReq_accesses::total    677317946                       # number of ReadReq accesses(hits+misses)
system.cpu.icache.demand_accesses::cpu.inst    677317946                       # number of demand (read+write) accesses
system.cpu.icache.demand_accesses::total    677317946                       # number of demand (read+write) accesses
system.cpu.icache.overall_accesses::cpu.inst    677317946                       # number of overall (read+write) accesses
system.cpu.icache.overall_accesses::total    677317946                       # number of overall (read+write) accesses
system.cpu.icache.ReadReq_miss_rate::cpu.inst     0.000001                       # miss rate for ReadReq accesses
system.cpu.icache.ReadReq_miss_rate::total     0.000001                       # miss rate for ReadReq accesses
system.cpu.icache.demand_miss_rate::cpu.inst     0.000001                       # miss rate for demand accesses
system.cpu.icache.demand_miss_rate::total     0.000001                       # miss rate for demand accesses
system.cpu.icache.overall_miss_rate::cpu.inst     0.000001                       # miss rate for overall accesses
system.cpu.icache.overall_miss_rate::total     0.000001                       # miss rate for overall accesses
system.cpu.icache.ReadReq_avg_miss_latency::cpu.inst 80911.111111                       # average ReadReq miss latency
system.cpu.icache.ReadReq_avg_miss_latency::total 80911.111111                       # average ReadReq miss latency
system.cpu.icache.demand_avg_miss_latency::cpu.inst 80911.111111                       # average overall miss latency
system.cpu.icache.demand_avg_miss_latency::total 80911.111111                       # average overall miss latency
system.cpu.icache.overall_avg_miss_latency::cpu.inst 80911.111111                       # average overall miss latency
system.cpu.icache.overall_avg_miss_latency::total 80911.111111                       # average overall miss latency
system.cpu.icache.blocked_cycles::no_mshrs            0                       # number of cycles access was blocked
system.cpu.icache.blocked_cycles::no_targets            0                       # number of cycles access was blocked
system.cpu.icache.blocked::no_mshrs                 0                       # number of cycles access was blocked
system.cpu.icache.blocked::no_targets               0                       # number of cycles access was blocked
system.cpu.icache.avg_blocked_cycles::no_mshrs          nan                       # average number of cycles each access was blocked
system.cpu.icache.avg_blocked_cycles::no_targets          nan                       # average number of cycles each access was blocked
system.cpu.icache.fast_writes                       0                       # number of fast writes performed
system.cpu.icache.cache_copies                      0                       # number of cache copies performed
system.cpu.icache.ReadReq_mshr_misses::cpu.inst          675                       # number of ReadReq MSHR misses
system.cpu.icache.ReadReq_mshr_misses::total          675                       # number of ReadReq MSHR misses
system.cpu.icache.demand_mshr_misses::cpu.inst          675                       # number of demand (read+write) MSHR misses
system.cpu.icache.demand_mshr_misses::total          675                       # number of demand (read+write) MSHR misses
system.cpu.icache.overall_mshr_misses::cpu.inst          675                       # number of overall MSHR misses
system.cpu.icache.overall_mshr_misses::total          675                       # number of overall MSHR misses
system.cpu.icache.ReadReq_mshr_miss_latency::cpu.inst     53940000                       # number of ReadReq MSHR miss cycles
system.cpu.icache.ReadReq_mshr_miss_latency::total     53940000                       # number of ReadReq MSHR miss cycles
system.cpu.icache.demand_mshr_miss_latency::cpu.inst     53940000                       # number of demand (read+write) MSHR miss cycles
system.cpu.icache.demand_mshr_miss_latency::total     53940000                       # number of demand (read+write) MSHR miss cycles
system.cpu.icache.overall_mshr_miss_latency::cpu.inst     53940000                       # number of overall MSHR miss cycles
system.cpu.icache.overall_mshr_miss_latency::total     53940000                       # number of overall MSHR miss cycles
system.cpu.icache.ReadReq_mshr_miss_rate::cpu.inst     0.000001                       # mshr miss rate for ReadReq accesses
system.cpu.icache.ReadReq_mshr_miss_rate::total     0.000001                       # mshr miss rate for ReadReq accesses
system.cpu.icache.demand_mshr_miss_rate::cpu.inst     0.000001                       # mshr miss rate for demand accesses
system.cpu.icache.demand_mshr_miss_rate::total     0.000001                       # mshr miss rate for demand accesses
system.cpu.icache.overall_mshr_miss_rate::cpu.inst     0.000001                       # mshr miss rate for overall accesses
system.cpu.icache.overall_mshr_miss_rate::total     0.000001                       # mshr miss rate for overall accesses
system.cpu.icache.ReadReq_avg_mshr_miss_latency::cpu.inst 79911.111111                       # average ReadReq mshr miss latency
system.cpu.icache.ReadReq_avg_mshr_miss_latency::total 79911.111111                       # average ReadReq mshr miss latency
system.cpu.icache.demand_avg_mshr_miss_latency::cpu.inst 79911.111111                       # average overall mshr miss latency
system.cpu.icache.demand_avg_mshr_miss_latency::total 79911.111111                       # average overall mshr miss latency
system.cpu.icache.overall_avg_mshr_miss_latency::cpu.inst 79911.111111                       # average overall mshr miss latency
system.cpu.icache.overall_avg_mshr_miss_latency::total 79911.111111                       # average overall mshr miss latency
system.cpu.icache.no_allocate_misses                0                       # Number of misses that were no-allocate
system.cpu.itb_walker_cache.tags.replacements            0                       # number of replacements
system.cpu.itb_walker_cache.tags.tagsinuse            0                       # Cycle average of tags in use
system.cpu.itb_walker_cache.tags.total_refs            0                       # Total number of references to valid blocks.
system.cpu.itb_walker_cache.tags.sampled_refs            0                       # Sample count of references to valid blocks.
system.cpu.itb_walker_cache.tags.avg_refs          nan                       # Average number of references to valid blocks.
system.cpu.itb_walker_cache.tags.warmup_cycle            0                       # Cycle when the warmup percentage was hit.
system.cpu.itb_walker_cache.tags.tag_accesses            0                       # Number of tag accesses
system.cpu.itb_walker_cache.tags.data_accesses            0                       # Number of data accesses
system.cpu.itb_walker_cache.blocked_cycles::no_mshrs            0                       # number of cycles access was blocked
system.cpu.itb_walker_cache.blocked_cycles::no_targets            0                       # number of cycles access was blocked
system.cpu.itb_walker_cache.blocked::no_mshrs            0                       # number of cycles access was blocked
system.cpu.itb_walker_cache.blocked::no_targets            0                       # number of cycles access was blocked
system.cpu.itb_walker_cache.avg_blocked_cycles::no_mshrs          nan                       # average number of cycles each access was blocked
system.cpu.itb_walker_cache.avg_blocked_cycles::no_targets          nan                       # average number of cycles each access was blocked
system.cpu.itb_walker_cache.fast_writes             0                       # number of fast writes performed
system.cpu.itb_walker_cache.cache_copies            0                       # number of cache copies performed
system.cpu.itb_walker_cache.no_allocate_misses            0                       # Number of misses that were no-allocate
system.l2.tags.replacements                   6708668                       # number of replacements
system.l2.tags.tagsinuse                 16166.143470                       # Cycle average of tags in use
system.l2.tags.total_refs                    17391120                       # Total number of references to valid blocks.
system.l2.tags.sampled_refs                   6725003                       # Sample count of references to valid blocks.
system.l2.tags.avg_refs                      2.586039                       # Average number of references to valid blocks.
system.l2.tags.warmup_cycle              330351113500                       # Cycle when the warmup percentage was hit.
system.l2.tags.occ_blocks::writebacks     3228.962377                       # Average occupied blocks per requestor
system.l2.tags.occ_blocks::cpu.inst          1.613904                       # Average occupied blocks per requestor
system.l2.tags.occ_blocks::cpu.data      12935.567188                       # Average occupied blocks per requestor
system.l2.tags.occ_percent::writebacks       0.197080                       # Average percentage of cache occupancy
system.l2.tags.occ_percent::cpu.inst         0.000099                       # Average percentage of cache occupancy
system.l2.tags.occ_percent::cpu.data         0.789524                       # Average percentage of cache occupancy
system.l2.tags.occ_percent::total            0.986703                       # Average percentage of cache occupancy
system.l2.tags.occ_task_id_blocks::1024         16335                       # Occupied blocks per task id
system.l2.tags.age_task_id_blocks_1024::1          399                       # Occupied blocks per task id
system.l2.tags.age_task_id_blocks_1024::2         3317                       # Occupied blocks per task id
system.l2.tags.age_task_id_blocks_1024::3         9575                       # Occupied blocks per task id
system.l2.tags.age_task_id_blocks_1024::4         3044                       # Occupied blocks per task id
system.l2.tags.occ_task_id_percent::1024     0.997009                       # Percentage of cache occupancy per task id
system.l2.tags.tag_accesses                  32142719                       # Number of tag accesses
system.l2.tags.data_accesses                 32142719                       # Number of data accesses
system.l2.WritebackDirty_hits::writebacks      3207071                       # number of WritebackDirty hits
system.l2.WritebackDirty_hits::total          3207071                       # number of WritebackDirty hits
system.l2.ReadExReq_hits::cpu.data             204601                       # number of ReadExReq hits
system.l2.ReadExReq_hits::total                204601                       # number of ReadExReq hits
system.l2.ReadCleanReq_hits::cpu.inst               1                       # number of ReadCleanReq hits
system.l2.ReadCleanReq_hits::total                  1                       # number of ReadCleanReq hits
system.l2.ReadSharedReq_hits::cpu.data        5684074                       # number of ReadSharedReq hits
system.l2.ReadSharedReq_hits::total           5684074                       # number of ReadSharedReq hits
system.l2.demand_hits::cpu.inst                     1                       # number of demand (read+write) hits
system.l2.demand_hits::cpu.data               5888675                       # number of demand (read+write) hits
system.l2.demand_hits::total                  5888676                       # number of demand (read+write) hits
system.l2.overall_hits::cpu.inst                    1                       # number of overall hits
system.l2.overall_hits::cpu.data              5888675                       # number of overall hits
system.l2.overall_hits::total                 5888676                       # number of overall hits
system.l2.ReadExReq_misses::cpu.data           211829                       # number of ReadExReq misses
system.l2.ReadExReq_misses::total              211829                       # number of ReadExReq misses
system.l2.ReadCleanReq_misses::cpu.inst           674                       # number of ReadCleanReq misses
system.l2.ReadCleanReq_misses::total              674                       # number of ReadCleanReq misses
system.l2.ReadSharedReq_misses::cpu.data      6400314                       # number of ReadSharedReq misses
system.l2.ReadSharedReq_misses::total         6400314                       # number of ReadSharedReq misses
system.l2.demand_misses::cpu.inst                 674                       # number of demand (read+write) misses
system.l2.demand_misses::cpu.data             6612143                       # number of demand (read+write) misses
system.l2.demand_misses::total                6612817                       # number of demand (read+write) misses
system.l2.overall_misses::cpu.inst                674                       # number of overall misses
system.l2.overall_misses::cpu.data            6612143                       # number of overall misses
system.l2.overall_misses::total               6612817                       # number of overall misses
system.l2.ReadExReq_miss_latency::cpu.data  17008026500                       # number of ReadExReq miss cycles
system.l2.ReadExReq_miss_latency::total   17008026500                       # number of ReadExReq miss cycles
system.l2.ReadCleanReq_miss_latency::cpu.inst     52915000                       # number of ReadCleanReq miss cycles
system.l2.ReadCleanReq_miss_latency::total     52915000                       # number of ReadCleanReq miss cycles
system.l2.ReadSharedReq_miss_latency::cpu.data 588485536500                       # number of ReadSharedReq miss cycles
system.l2.ReadSharedReq_miss_latency::total 588485536500                       # number of ReadSharedReq miss cycles
system.l2.demand_miss_latency::cpu.inst      52915000                       # number of demand (read+write) miss cycles
system.l2.demand_miss_latency::cpu.data  605493563000                       # number of demand (read+write) miss cycles
system.l2.demand_miss_latency::total     605546478000                       # number of demand (read+write) miss cycles
system.l2.overall_miss_latency::cpu.inst     52915000                       # number of overall miss cycles
system.l2.overall_miss_latency::cpu.data 605493563000                       # number of overall miss cycles
system.l2.overall_miss_latency::total    605546478000                       # number of overall miss cycles
system.l2.WritebackDirty_accesses::writebacks      3207071                       # number of WritebackDirty accesses(hits+misses)
system.l2.WritebackDirty_accesses::total      3207071                       # number of WritebackDirty accesses(hits+misses)
system.l2.ReadExReq_accesses::cpu.data         416430                       # number of ReadExReq accesses(hits+misses)
system.l2.ReadExReq_accesses::total            416430                       # number of ReadExReq accesses(hits+misses)
system.l2.ReadCleanReq_accesses::cpu.inst          675                       # number of ReadCleanReq accesses(hits+misses)
system.l2.ReadCleanReq_accesses::total            675                       # number of ReadCleanReq accesses(hits+misses)
system.l2.ReadSharedReq_accesses::cpu.data     12084388                       # number of ReadSharedReq accesses(hits+misses)
system.l2.ReadSharedReq_accesses::total      12084388                       # number of ReadSharedReq accesses(hits+misses)
system.l2.demand_accesses::cpu.inst               675                       # number of demand (read+write) accesses
system.l2.demand_accesses::cpu.data          12500818                       # number of demand (read+write) accesses
system.l2.demand_accesses::total             12501493                       # number of demand (read+write) accesses
system.l2.overall_accesses::cpu.inst              675                       # number of overall (read+write) accesses
system.l2.overall_accesses::cpu.data         12500818                       # number of overall (read+write) accesses
system.l2.overall_accesses::total            12501493                       # number of overall (read+write) accesses
system.l2.ReadExReq_miss_rate::cpu.data      0.508679                       # miss rate for ReadExReq accesses
system.l2.ReadExReq_miss_rate::total         0.508679                       # miss rate for ReadExReq accesses
system.l2.ReadCleanReq_miss_rate::cpu.inst     0.998519                       # miss rate for ReadCleanReq accesses
system.l2.ReadCleanReq_miss_rate::total      0.998519                       # miss rate for ReadCleanReq accesses
system.l2.ReadSharedReq_miss_rate::cpu.data     0.529635                       # miss rate for ReadSharedReq accesses
system.l2.ReadSharedReq_miss_rate::total     0.529635                       # miss rate for ReadSharedReq accesses
system.l2.demand_miss_rate::cpu.inst         0.998519                       # miss rate for demand accesses
system.l2.demand_miss_rate::cpu.data         0.528937                       # miss rate for demand accesses
system.l2.demand_miss_rate::total            0.528962                       # miss rate for demand accesses
system.l2.overall_miss_rate::cpu.inst        0.998519                       # miss rate for overall accesses
system.l2.overall_miss_rate::cpu.data        0.528937                       # miss rate for overall accesses
system.l2.overall_miss_rate::total           0.528962                       # miss rate for overall accesses
system.l2.ReadExReq_avg_miss_latency::cpu.data 80291.303363                       # average ReadExReq miss latency
system.l2.ReadExReq_avg_miss_latency::total 80291.303363                       # average ReadExReq miss latency
system.l2.ReadCleanReq_avg_miss_latency::cpu.inst 78508.902077                       # average ReadCleanReq miss latency
system.l2.ReadCleanReq_avg_miss_latency::total 78508.902077                       # average ReadCleanReq miss latency
system.l2.ReadSharedReq_avg_miss_latency::cpu.data 91946.353960                       # average ReadSharedReq miss latency
system.l2.ReadSharedReq_avg_miss_latency::total 91946.353960                       # average ReadSharedReq miss latency
system.l2.demand_avg_miss_latency::cpu.inst 78508.902077                       # average overall miss latency
system.l2.demand_avg_miss_latency::cpu.data 91572.968552                       # average overall miss latency
system.l2.demand_avg_miss_latency::total 91571.637019                       # average overall miss latency
system.l2.overall_avg_miss_latency::cpu.inst 78508.902077                       # average overall miss latency
system.l2.overall_avg_miss_latency::cpu.data 91572.968552                       # average overall miss latency
system.l2.overall_avg_miss_latency::total 91571.637019                       # average overall miss latency
system.l2.blocked_cycles::no_mshrs                  0                       # number of cycles access was blocked
system.l2.blocked_cycles::no_targets                0                       # number of cycles access was blocked
system.l2.blocked::no_mshrs                         0                       # number of cycles access was blocked
system.l2.blocked::no_targets                       0                       # number of cycles access was blocked
system.l2.avg_blocked_cycles::no_mshrs            nan                       # average number of cycles each access was blocked
system.l2.avg_blocked_cycles::no_targets          nan                       # average number of cycles each access was blocked
system.l2.fast_writes                               0                       # number of fast writes performed
system.l2.cache_copies                              0                       # number of cache copies performed
system.l2.writebacks::writebacks              1129869                       # number of writebacks
system.l2.writebacks::total                   1129869                       # number of writebacks
system.l2.CleanEvict_mshr_misses::writebacks       468404                       # number of CleanEvict MSHR misses
system.l2.CleanEvict_mshr_misses::total        468404                       # number of CleanEvict MSHR misses
system.l2.ReadExReq_mshr_misses::cpu.data       211829                       # number of ReadExReq MSHR misses
system.l2.ReadExReq_mshr_misses::total         211829                       # number of ReadExReq MSHR misses
system.l2.ReadCleanReq_mshr_misses::cpu.inst          674                       # number of ReadCleanReq MSHR misses
system.l2.ReadCleanReq_mshr_misses::total          674                       # number of ReadCleanReq MSHR misses
system.l2.ReadSharedReq_mshr_misses::cpu.data      6400314                       # number of ReadSharedReq MSHR misses
system.l2.ReadSharedReq_mshr_misses::total      6400314                       # number of ReadSharedReq MSHR misses
system.l2.demand_mshr_misses::cpu.inst            674                       # number of demand (read+write) MSHR misses
system.l2.demand_mshr_misses::cpu.data        6612143                       # number of demand (read+write) MSHR misses
system.l2.demand_mshr_misses::total           6612817                       # number of demand (read+write) MSHR misses
system.l2.overall_mshr_misses::cpu.inst           674                       # number of overall MSHR misses
system.l2.overall_mshr_misses::cpu.data       6612143                       # number of overall MSHR misses
system.l2.overall_mshr_misses::total          6612817                       # number of overall MSHR misses
system.l2.ReadExReq_mshr_miss_latency::cpu.data  14889736500                       # number of ReadExReq MSHR miss cycles
system.l2.ReadExReq_mshr_miss_latency::total  14889736500                       # number of ReadExReq MSHR miss cycles
system.l2.ReadCleanReq_mshr_miss_latency::cpu.inst     46175000                       # number of ReadCleanReq MSHR miss cycles
system.l2.ReadCleanReq_mshr_miss_latency::total     46175000                       # number of ReadCleanReq MSHR miss cycles
system.l2.ReadSharedReq_mshr_miss_latency::cpu.data 524482396500                       # number of ReadSharedReq MSHR miss cycles
system.l2.ReadSharedReq_mshr_miss_latency::total 524482396500                       # number of ReadSharedReq MSHR miss cycles
system.l2.demand_mshr_miss_latency::cpu.inst     46175000                       # number of demand (read+write) MSHR miss cycles
system.l2.demand_mshr_miss_latency::cpu.data 539372133000                       # number of demand (read+write) MSHR miss cycles
system.l2.demand_mshr_miss_latency::total 539418308000                       # number of demand (read+write) MSHR miss cycles
system.l2.overall_mshr_miss_latency::cpu.inst     46175000                       # number of overall MSHR miss cycles
system.l2.overall_mshr_miss_latency::cpu.data 539372133000                       # number of overall MSHR miss cycles
system.l2.overall_mshr_miss_latency::total 539418308000                       # number of overall MSHR miss cycles
system.l2.CleanEvict_mshr_miss_rate::writebacks          inf                       # mshr miss rate for CleanEvict accesses
system.l2.CleanEvict_mshr_miss_rate::total          inf                       # mshr miss rate for CleanEvict accesses
system.l2.ReadExReq_mshr_miss_rate::cpu.data     0.508679                       # mshr miss rate for ReadExReq accesses
system.l2.ReadExReq_mshr_miss_rate::total     0.508679                       # mshr miss rate for ReadExReq accesses
system.l2.ReadCleanReq_mshr_miss_rate::cpu.inst     0.998519                       # mshr miss rate for ReadCleanReq accesses
system.l2.ReadCleanReq_mshr_miss_rate::total     0.998519                       # mshr miss rate for ReadCleanReq accesses
system.l2.ReadSharedReq_mshr_miss_rate::cpu.data     0.529635                       # mshr miss rate for ReadSharedReq accesses
system.l2.ReadSharedReq_mshr_miss_rate::total     0.529635                       # mshr miss rate for ReadSharedReq accesses
system.l2.demand_mshr_miss_rate::cpu.inst     0.998519                       # mshr miss rate for demand accesses
system.l2.demand_mshr_miss_rate::cpu.data     0.528937                       # mshr miss rate for demand accesses
system.l2.demand_mshr_miss_rate::total       0.528962                       # mshr miss rate for demand accesses
system.l2.overall_mshr_miss_rate::cpu.inst     0.998519                       # mshr miss rate for overall accesses
system.l2.overall_mshr_miss_rate::cpu.data     0.528937                       # mshr miss rate for overall accesses
system.l2.overall_mshr_miss_rate::total      0.528962                       # mshr miss rate for overall accesses
system.l2.ReadExReq_avg_mshr_miss_latency::cpu.data 70291.303363                       # average ReadExReq mshr miss latency
system.l2.ReadExReq_avg_mshr_miss_latency::total 70291.303363                       # average ReadExReq mshr miss latency
system.l2.ReadCleanReq_avg_mshr_miss_latency::cpu.inst 68508.902077                       # average ReadCleanReq mshr miss latency
system.l2.ReadCleanReq_avg_mshr_miss_latency::total 68508.902077                       # average ReadCleanReq mshr miss latency
system.l2.ReadSharedReq_avg_mshr_miss_latency::cpu.data 81946.353960                       # average ReadSharedReq mshr miss latency
system.l2.ReadSharedReq_avg_mshr_miss_latency::total 81946.353960                       # average ReadSharedReq mshr miss latency
system.l2.demand_avg_mshr_miss_latency::cpu.inst 68508.902077                       # average overall mshr miss latency
system.l2.demand_avg_mshr_miss_latency::cpu.data 81572.968552                       # average overall mshr miss latency
system.l2.demand_avg_mshr_miss_latency::total 81571.637019                       # average overall mshr miss latency
system.l2.overall_avg_mshr_miss_latency::cpu.inst 68508.902077                       # average overall mshr miss latency
system.l2.overall_avg_mshr_miss_latency::cpu.data 81572.968552                       # average overall mshr miss latency
system.l2.overall_avg_mshr_miss_latency::total 81571.637019                       # average overall mshr miss latency
system.l2.no_allocate_misses                        0                       # Number of misses that were no-allocate
system.membus.trans_dist::ReadResp            6400988                       # Transaction distribution
system.membus.trans_dist::WritebackDirty      1129869                       # Transaction distribution
system.membus.trans_dist::CleanEvict          5465858                       # Transaction distribution
system.membus.trans_dist::ReadExReq            211829                       # Transaction distribution
system.membus.trans_dist::ReadExResp           211829                       # Transaction distribution
system.membus.trans_dist::ReadSharedReq       6400988                       # Transaction distribution
system.membus.pkt_count_system.l2.mem_side::system.mem_ctrls.port     19821361                       # Packet count per connected master and slave (bytes)
system.membus.pkt_count_system.l2.mem_side::total     19821361                       # Packet count per connected master and slave (bytes)
system.membus.pkt_count::total               19821361                       # Packet count per connected master and slave (bytes)
system.membus.pkt_size_system.l2.mem_side::system.mem_ctrls.port    495531904                       # Cumulative packet size per connected master and slave (bytes)
system.membus.pkt_size_system.l2.mem_side::total    495531904                       # Cumulative packet size per connected master and slave (bytes)
system.membus.pkt_size::total               495531904                       # Cumulative packet size per connected master and slave (bytes)
system.membus.snoops                                0                       # Total snoops (count)
system.membus.snoop_fanout::samples          13208544                       # Request fanout histogram
system.membus.snoop_fanout::mean                    0                       # Request fanout histogram
system.membus.snoop_fanout::stdev                   0                       # Request fanout histogram
system.membus.snoop_fanout::underflows              0      0.00%      0.00% # Request fanout histogram
system.membus.snoop_fanout::0                13208544    100.00%    100.00% # Request fanout histogram
system.membus.snoop_fanout::1                       0      0.00%    100.00% # Request fanout histogram
system.membus.snoop_fanout::overflows               0      0.00%    100.00% # Request fanout histogram
system.membus.snoop_fanout::min_value               0                       # Request fanout histogram
system.membus.snoop_fanout::max_value               0                       # Request fanout histogram
system.membus.snoop_fanout::total            13208544                       # Request fanout histogram
system.membus.reqLayer2.occupancy         17735084500                       # Layer occupancy (ticks)
system.membus.reqLayer2.utilization               1.1                       # Layer utilization (%)
system.membus.respLayer1.occupancy        36889433750                       # Layer occupancy (ticks)
system.membus.respLayer1.utilization              2.2                       # Layer utilization (%)
system.tol2bus.snoop_filter.tot_requests     25001287                       # Total number of requests made to the snoop filter.
system.tol2bus.snoop_filter.hit_single_requests     12499794                       # Number of requests hitting in the snoop filter with a single holder of the requested data.
system.tol2bus.snoop_filter.hit_multi_requests            1                       # Number of requests hitting in the snoop filter with multiple (>1) holders of the requested data.
system.tol2bus.snoop_filter.tot_snoops         581345                       # Total number of snoops made to the snoop filter.
system.tol2bus.snoop_filter.hit_single_snoops       581345                       # Number of snoops hitting in the snoop filter with a single holder of the requested data.
system.tol2bus.snoop_filter.hit_multi_snoops            0                       # Number of snoops hitting in the snoop filter with multiple (>1) holders of the requested data.
system.tol2bus.trans_dist::ReadResp          12085063                       # Transaction distribution
system.tol2bus.trans_dist::WritebackDirty      4336940                       # Transaction distribution
system.tol2bus.trans_dist::CleanEvict        14871521                       # Transaction distribution
system.tol2bus.trans_dist::ReadExReq           416430                       # Transaction distribution
system.tol2bus.trans_dist::ReadExResp          416430                       # Transaction distribution
system.tol2bus.trans_dist::ReadCleanReq           675                       # Transaction distribution
system.tol2bus.trans_dist::ReadSharedReq     12084388                       # Transaction distribution
system.tol2bus.pkt_count_system.cpu.icache.mem_side::system.l2.cpu_side         1350                       # Packet count per connected master and slave (bytes)
system.tol2bus.pkt_count_system.cpu.dcache.mem_side::system.l2.cpu_side     37501429                       # Packet count per connected master and slave (bytes)
system.tol2bus.pkt_count::total              37502779                       # Packet count per connected master and slave (bytes)
system.tol2bus.pkt_size_system.cpu.icache.mem_side::system.l2.cpu_side        43200                       # Cumulative packet size per connected master and slave (bytes)
system.tol2bus.pkt_size_system.cpu.dcache.mem_side::system.l2.cpu_side   1005304896                       # Cumulative packet size per connected master and slave (bytes)
system.tol2bus.pkt_size::total             1005348096                       # Cumulative packet size per connected master and slave (bytes)
system.tol2bus.snoops                         6708668                       # Total snoops (count)
system.tol2bus.snoop_fanout::samples         19210161                       # Request fanout histogram
system.tol2bus.snoop_fanout::mean            0.030262                       # Request fanout histogram
system.tol2bus.snoop_fanout::stdev           0.171309                       # Request fanout histogram
system.tol2bus.snoop_fanout::underflows             0      0.00%      0.00% # Request fanout histogram
system.tol2bus.snoop_fanout::0               18628815     96.97%     96.97% # Request fanout histogram
system.tol2bus.snoop_fanout::1                 581346      3.03%    100.00% # Request fanout histogram
system.tol2bus.snoop_fanout::2                      0      0.00%    100.00% # Request fanout histogram
system.tol2bus.snoop_fanout::3                      0      0.00%    100.00% # Request fanout histogram
system.tol2bus.snoop_fanout::4                      0      0.00%    100.00% # Request fanout histogram
system.tol2bus.snoop_fanout::overflows              0      0.00%    100.00% # Request fanout histogram
system.tol2bus.snoop_fanout::min_value              0                       # Request fanout histogram
system.tol2bus.snoop_fanout::max_value              1                       # Request fanout histogram
system.tol2bus.snoop_fanout::total           19210161                       # Request fanout histogram
system.tol2bus.reqLayer0.occupancy        15707714500                       # Layer occupancy (ticks)
system.tol2bus.reqLayer0.utilization              0.9                       # Layer utilization (%)
system.tol2bus.respLayer0.occupancy           1012500                       # Layer occupancy (ticks)
system.tol2bus.respLayer0.utilization             0.0                       # Layer utilization (%)
system.tol2bus.respLayer1.occupancy       18751227000                       # Layer occupancy (ticks)
system.tol2bus.respLayer1.utilization             1.1                       # Layer utilization (%)

---------- End Simulation Statistics   ----------
