
---------- Begin Simulation Statistics ----------
sim_seconds                                  1.928867                       # Number of seconds simulated
sim_ticks                                1928866777500                       # Number of ticks simulated
final_tick                               1928866777500                       # Number of ticks from beginning of simulation (restored from checkpoints and never reset)
sim_freq                                 1000000000000                       # Frequency of simulated ticks
host_inst_rate                                 176103                       # Simulator instruction rate (inst/s)
host_op_rate                                   308643                       # Simulator op (including micro ops) rate (op/s)
host_tick_rate                              679357561                       # Simulator tick rate (ticks/s)
host_mem_usage                                 823992                       # Number of bytes of host memory used
host_seconds                                  2839.25                       # Real time elapsed on the host
sim_insts                                   500000000                       # Number of instructions simulated
sim_ops                                     876313783                       # Number of ops (including micro ops) simulated
system.voltage_domain.voltage                       1                       # Voltage in Volts
system.clk_domain.clock                          1000                       # Clock period in ticks
system.mem_ctrls.bytes_read::cpu.inst           37184                       # Number of bytes read from this memory
system.mem_ctrls.bytes_read::cpu.data       334622976                       # Number of bytes read from this memory
system.mem_ctrls.bytes_read::total          334660160                       # Number of bytes read from this memory
system.mem_ctrls.bytes_inst_read::cpu.inst        37184                       # Number of instructions bytes read from this memory
system.mem_ctrls.bytes_inst_read::total         37184                       # Number of instructions bytes read from this memory
system.mem_ctrls.bytes_written::writebacks     41252736                       # Number of bytes written to this memory
system.mem_ctrls.bytes_written::total        41252736                       # Number of bytes written to this memory
system.mem_ctrls.num_reads::cpu.inst             1162                       # Number of read requests responded to by this memory
system.mem_ctrls.num_reads::cpu.data         10456968                       # Number of read requests responded to by this memory
system.mem_ctrls.num_reads::total            10458130                       # Number of read requests responded to by this memory
system.mem_ctrls.num_writes::writebacks       1289148                       # Number of write requests responded to by this memory
system.mem_ctrls.num_writes::total            1289148                       # Number of write requests responded to by this memory
system.mem_ctrls.bw_read::cpu.inst              19278                       # Total read bandwidth from this memory (bytes/s)
system.mem_ctrls.bw_read::cpu.data          173481642                       # Total read bandwidth from this memory (bytes/s)
system.mem_ctrls.bw_read::total             173500920                       # Total read bandwidth from this memory (bytes/s)
system.mem_ctrls.bw_inst_read::cpu.inst         19278                       # Instruction read bandwidth from this memory (bytes/s)
system.mem_ctrls.bw_inst_read::total            19278                       # Instruction read bandwidth from this memory (bytes/s)
system.mem_ctrls.bw_write::writebacks        21387032                       # Write bandwidth from this memory (bytes/s)
system.mem_ctrls.bw_write::total             21387032                       # Write bandwidth from this memory (bytes/s)
system.mem_ctrls.bw_total::writebacks        21387032                       # Total bandwidth to/from this memory (bytes/s)
system.mem_ctrls.bw_total::cpu.inst             19278                       # Total bandwidth to/from this memory (bytes/s)
system.mem_ctrls.bw_total::cpu.data         173481642                       # Total bandwidth to/from this memory (bytes/s)
system.mem_ctrls.bw_total::total            194887952                       # Total bandwidth to/from this memory (bytes/s)
system.mem_ctrls.readReqs                    10458130                       # Number of read requests accepted
system.mem_ctrls.writeReqs                    1289148                       # Number of write requests accepted
system.mem_ctrls.readBursts                  10458130                       # Number of DRAM read bursts, including those serviced by the write queue
system.mem_ctrls.writeBursts                  1289148                       # Number of DRAM write bursts, including those merged in the write queue
system.mem_ctrls.bytesReadDRAM              668499520                       # Total number of bytes read from DRAM
system.mem_ctrls.bytesReadWrQ                  820800                       # Total number of bytes read from write queue
system.mem_ctrls.bytesWritten                74930944                       # Total number of bytes written to DRAM
system.mem_ctrls.bytesReadSys               334660160                       # Total read bytes from the system interface side
system.mem_ctrls.bytesWrittenSys             41252736                       # Total written bytes from the system interface side
system.mem_ctrls.servicedByWrQ                  12825                       # Number of DRAM read bursts serviced by the write queue
system.mem_ctrls.mergedWrBursts                118335                       # Number of DRAM write bursts merged with an existing one
system.mem_ctrls.neitherReadNorWriteReqs      9135218                       # Number of requests that are neither read nor write
system.mem_ctrls.perBankRdBursts::0            668777                       # Per bank write bursts
system.mem_ctrls.perBankRdBursts::1            647587                       # Per bank write bursts
system.mem_ctrls.perBankRdBursts::2            649950                       # Per bank write bursts
system.mem_ctrls.perBankRdBursts::3            671946                       # Per bank write bursts
system.mem_ctrls.perBankRdBursts::4            638560                       # Per bank write bursts
system.mem_ctrls.perBankRdBursts::5            641262                       # Per bank write bursts
system.mem_ctrls.perBankRdBursts::6            654815                       # Per bank write bursts
system.mem_ctrls.perBankRdBursts::7            638260                       # Per bank write bursts
system.mem_ctrls.perBankRdBursts::8            644053                       # Per bank write bursts
system.mem_ctrls.perBankRdBursts::9            642865                       # Per bank write bursts
system.mem_ctrls.perBankRdBursts::10           645419                       # Per bank write bursts
system.mem_ctrls.perBankRdBursts::11           651715                       # Per bank write bursts
system.mem_ctrls.perBankRdBursts::12           662809                       # Per bank write bursts
system.mem_ctrls.perBankRdBursts::13           666839                       # Per bank write bursts
system.mem_ctrls.perBankRdBursts::14           657823                       # Per bank write bursts
system.mem_ctrls.perBankRdBursts::15           662625                       # Per bank write bursts
system.mem_ctrls.perBankWrBursts::0             75151                       # Per bank write bursts
system.mem_ctrls.perBankWrBursts::1             74399                       # Per bank write bursts
system.mem_ctrls.perBankWrBursts::2             74466                       # Per bank write bursts
system.mem_ctrls.perBankWrBursts::3             81616                       # Per bank write bursts
system.mem_ctrls.perBankWrBursts::4             72520                       # Per bank write bursts
system.mem_ctrls.perBankWrBursts::5             69402                       # Per bank write bursts
system.mem_ctrls.perBankWrBursts::6             73363                       # Per bank write bursts
system.mem_ctrls.perBankWrBursts::7             69169                       # Per bank write bursts
system.mem_ctrls.perBankWrBursts::8             70029                       # Per bank write bursts
system.mem_ctrls.perBankWrBursts::9             68850                       # Per bank write bursts
system.mem_ctrls.perBankWrBursts::10            69509                       # Per bank write bursts
system.mem_ctrls.perBankWrBursts::11            72857                       # Per bank write bursts
system.mem_ctrls.perBankWrBursts::12            74943                       # Per bank write bursts
system.mem_ctrls.perBankWrBursts::13            75243                       # Per bank write bursts
system.mem_ctrls.perBankWrBursts::14            74532                       # Per bank write bursts
system.mem_ctrls.perBankWrBursts::15            74747                       # Per bank write bursts
system.mem_ctrls.numRdRetry                         0                       # Number of times read queue was full causing retry
system.mem_ctrls.numWrRetry                         0                       # Number of times write queue was full causing retry
system.mem_ctrls.totGap                  1928849783500                       # Total gap between requests
system.mem_ctrls.readPktSize::0                     0                       # Read request sizes (log2)
system.mem_ctrls.readPktSize::1                     0                       # Read request sizes (log2)
system.mem_ctrls.readPktSize::2                     0                       # Read request sizes (log2)
system.mem_ctrls.readPktSize::3                     0                       # Read request sizes (log2)
system.mem_ctrls.readPktSize::4                     0                       # Read request sizes (log2)
system.mem_ctrls.readPktSize::5              10458130                       # Read request sizes (log2)
system.mem_ctrls.readPktSize::6                     0                       # Read request sizes (log2)
system.mem_ctrls.writePktSize::0                    0                       # Write request sizes (log2)
system.mem_ctrls.writePktSize::1                    0                       # Write request sizes (log2)
system.mem_ctrls.writePktSize::2                    0                       # Write request sizes (log2)
system.mem_ctrls.writePktSize::3                    0                       # Write request sizes (log2)
system.mem_ctrls.writePktSize::4                    0                       # Write request sizes (log2)
system.mem_ctrls.writePktSize::5              1289148                       # Write request sizes (log2)
system.mem_ctrls.writePktSize::6                    0                       # Write request sizes (log2)
system.mem_ctrls.rdQLenPdf::0                10445305                       # What read queue length does an incoming req see
system.mem_ctrls.rdQLenPdf::1                       0                       # What read queue length does an incoming req see
system.mem_ctrls.rdQLenPdf::2                       0                       # What read queue length does an incoming req see
system.mem_ctrls.rdQLenPdf::3                       0                       # What read queue length does an incoming req see
system.mem_ctrls.rdQLenPdf::4                       0                       # What read queue length does an incoming req see
system.mem_ctrls.rdQLenPdf::5                       0                       # What read queue length does an incoming req see
system.mem_ctrls.rdQLenPdf::6                       0                       # What read queue length does an incoming req see
system.mem_ctrls.rdQLenPdf::7                       0                       # What read queue length does an incoming req see
system.mem_ctrls.rdQLenPdf::8                       0                       # What read queue length does an incoming req see
system.mem_ctrls.rdQLenPdf::9                       0                       # What read queue length does an incoming req see
system.mem_ctrls.rdQLenPdf::10                      0                       # What read queue length does an incoming req see
system.mem_ctrls.rdQLenPdf::11                      0                       # What read queue length does an incoming req see
system.mem_ctrls.rdQLenPdf::12                      0                       # What read queue length does an incoming req see
system.mem_ctrls.rdQLenPdf::13                      0                       # What read queue length does an incoming req see
system.mem_ctrls.rdQLenPdf::14                      0                       # What read queue length does an incoming req see
system.mem_ctrls.rdQLenPdf::15                      0                       # What read queue length does an incoming req see
system.mem_ctrls.rdQLenPdf::16                      0                       # What read queue length does an incoming req see
system.mem_ctrls.rdQLenPdf::17                      0                       # What read queue length does an incoming req see
system.mem_ctrls.rdQLenPdf::18                      0                       # What read queue length does an incoming req see
system.mem_ctrls.rdQLenPdf::19                      0                       # What read queue length does an incoming req see
system.mem_ctrls.rdQLenPdf::20                      0                       # What read queue length does an incoming req see
system.mem_ctrls.rdQLenPdf::21                      0                       # What read queue length does an incoming req see
system.mem_ctrls.rdQLenPdf::22                      0                       # What read queue length does an incoming req see
system.mem_ctrls.rdQLenPdf::23                      0                       # What read queue length does an incoming req see
system.mem_ctrls.rdQLenPdf::24                      0                       # What read queue length does an incoming req see
system.mem_ctrls.rdQLenPdf::25                      0                       # What read queue length does an incoming req see
system.mem_ctrls.rdQLenPdf::26                      0                       # What read queue length does an incoming req see
system.mem_ctrls.rdQLenPdf::27                      0                       # What read queue length does an incoming req see
system.mem_ctrls.rdQLenPdf::28                      0                       # What read queue length does an incoming req see
system.mem_ctrls.rdQLenPdf::29                      0                       # What read queue length does an incoming req see
system.mem_ctrls.rdQLenPdf::30                      0                       # What read queue length does an incoming req see
system.mem_ctrls.rdQLenPdf::31                      0                       # What read queue length does an incoming req see
system.mem_ctrls.wrQLenPdf::0                       1                       # What write queue length does an incoming req see
system.mem_ctrls.wrQLenPdf::1                       1                       # What write queue length does an incoming req see
system.mem_ctrls.wrQLenPdf::2                       1                       # What write queue length does an incoming req see
system.mem_ctrls.wrQLenPdf::3                       1                       # What write queue length does an incoming req see
system.mem_ctrls.wrQLenPdf::4                       1                       # What write queue length does an incoming req see
system.mem_ctrls.wrQLenPdf::5                       1                       # What write queue length does an incoming req see
system.mem_ctrls.wrQLenPdf::6                       1                       # What write queue length does an incoming req see
system.mem_ctrls.wrQLenPdf::7                       1                       # What write queue length does an incoming req see
system.mem_ctrls.wrQLenPdf::8                       1                       # What write queue length does an incoming req see
system.mem_ctrls.wrQLenPdf::9                       1                       # What write queue length does an incoming req see
system.mem_ctrls.wrQLenPdf::10                      1                       # What write queue length does an incoming req see
system.mem_ctrls.wrQLenPdf::11                      1                       # What write queue length does an incoming req see
system.mem_ctrls.wrQLenPdf::12                      1                       # What write queue length does an incoming req see
system.mem_ctrls.wrQLenPdf::13                      1                       # What write queue length does an incoming req see
system.mem_ctrls.wrQLenPdf::14                      1                       # What write queue length does an incoming req see
system.mem_ctrls.wrQLenPdf::15                  17797                       # What write queue length does an incoming req see
system.mem_ctrls.wrQLenPdf::16                  19041                       # What write queue length does an incoming req see
system.mem_ctrls.wrQLenPdf::17                  70661                       # What write queue length does an incoming req see
system.mem_ctrls.wrQLenPdf::18                  70880                       # What write queue length does an incoming req see
system.mem_ctrls.wrQLenPdf::19                  70869                       # What write queue length does an incoming req see
system.mem_ctrls.wrQLenPdf::20                  70871                       # What write queue length does an incoming req see
system.mem_ctrls.wrQLenPdf::21                  70867                       # What write queue length does an incoming req see
system.mem_ctrls.wrQLenPdf::22                  70868                       # What write queue length does an incoming req see
system.mem_ctrls.wrQLenPdf::23                  70869                       # What write queue length does an incoming req see
system.mem_ctrls.wrQLenPdf::24                  70868                       # What write queue length does an incoming req see
system.mem_ctrls.wrQLenPdf::25                  70969                       # What write queue length does an incoming req see
system.mem_ctrls.wrQLenPdf::26                  70868                       # What write queue length does an incoming req see
system.mem_ctrls.wrQLenPdf::27                  70965                       # What write queue length does an incoming req see
system.mem_ctrls.wrQLenPdf::28                  70923                       # What write queue length does an incoming req see
system.mem_ctrls.wrQLenPdf::29                  70881                       # What write queue length does an incoming req see
system.mem_ctrls.wrQLenPdf::30                  70877                       # What write queue length does an incoming req see
system.mem_ctrls.wrQLenPdf::31                  70861                       # What write queue length does an incoming req see
system.mem_ctrls.wrQLenPdf::32                  70861                       # What write queue length does an incoming req see
system.mem_ctrls.wrQLenPdf::33                      2                       # What write queue length does an incoming req see
system.mem_ctrls.wrQLenPdf::34                      0                       # What write queue length does an incoming req see
system.mem_ctrls.wrQLenPdf::35                      0                       # What write queue length does an incoming req see
system.mem_ctrls.wrQLenPdf::36                      0                       # What write queue length does an incoming req see
system.mem_ctrls.wrQLenPdf::37                      0                       # What write queue length does an incoming req see
system.mem_ctrls.wrQLenPdf::38                      0                       # What write queue length does an incoming req see
system.mem_ctrls.wrQLenPdf::39                      0                       # What write queue length does an incoming req see
system.mem_ctrls.wrQLenPdf::40                      0                       # What write queue length does an incoming req see
system.mem_ctrls.wrQLenPdf::41                      0                       # What write queue length does an incoming req see
system.mem_ctrls.wrQLenPdf::42                      0                       # What write queue length does an incoming req see
system.mem_ctrls.wrQLenPdf::43                      0                       # What write queue length does an incoming req see
system.mem_ctrls.wrQLenPdf::44                      0                       # What write queue length does an incoming req see
system.mem_ctrls.wrQLenPdf::45                      0                       # What write queue length does an incoming req see
system.mem_ctrls.wrQLenPdf::46                      0                       # What write queue length does an incoming req see
system.mem_ctrls.wrQLenPdf::47                      0                       # What write queue length does an incoming req see
system.mem_ctrls.wrQLenPdf::48                      0                       # What write queue length does an incoming req see
system.mem_ctrls.wrQLenPdf::49                      0                       # What write queue length does an incoming req see
system.mem_ctrls.wrQLenPdf::50                      0                       # What write queue length does an incoming req see
system.mem_ctrls.wrQLenPdf::51                      0                       # What write queue length does an incoming req see
system.mem_ctrls.wrQLenPdf::52                      0                       # What write queue length does an incoming req see
system.mem_ctrls.wrQLenPdf::53                      0                       # What write queue length does an incoming req see
system.mem_ctrls.wrQLenPdf::54                      0                       # What write queue length does an incoming req see
system.mem_ctrls.wrQLenPdf::55                      0                       # What write queue length does an incoming req see
system.mem_ctrls.wrQLenPdf::56                      0                       # What write queue length does an incoming req see
system.mem_ctrls.wrQLenPdf::57                      0                       # What write queue length does an incoming req see
system.mem_ctrls.wrQLenPdf::58                      0                       # What write queue length does an incoming req see
system.mem_ctrls.wrQLenPdf::59                      0                       # What write queue length does an incoming req see
system.mem_ctrls.wrQLenPdf::60                      0                       # What write queue length does an incoming req see
system.mem_ctrls.wrQLenPdf::61                      0                       # What write queue length does an incoming req see
system.mem_ctrls.wrQLenPdf::62                      0                       # What write queue length does an incoming req see
system.mem_ctrls.wrQLenPdf::63                      0                       # What write queue length does an incoming req see
system.mem_ctrls.bytesPerActivate::samples      5989922                       # Bytes accessed per row activation
system.mem_ctrls.bytesPerActivate::mean    124.113547                       # Bytes accessed per row activation
system.mem_ctrls.bytesPerActivate::gmean   105.485054                       # Bytes accessed per row activation
system.mem_ctrls.bytesPerActivate::stdev   120.730288                       # Bytes accessed per row activation
system.mem_ctrls.bytesPerActivate::0-127      2196319     36.67%     36.67% # Bytes accessed per row activation
system.mem_ctrls.bytesPerActivate::128-255      3565340     59.52%     96.19% # Bytes accessed per row activation
system.mem_ctrls.bytesPerActivate::256-383        84619      1.41%     97.60% # Bytes accessed per row activation
system.mem_ctrls.bytesPerActivate::384-511        25766      0.43%     98.03% # Bytes accessed per row activation
system.mem_ctrls.bytesPerActivate::512-639        15547      0.26%     98.29% # Bytes accessed per row activation
system.mem_ctrls.bytesPerActivate::640-767        10369      0.17%     98.46% # Bytes accessed per row activation
system.mem_ctrls.bytesPerActivate::768-895        10957      0.18%     98.65% # Bytes accessed per row activation
system.mem_ctrls.bytesPerActivate::896-1023         9682      0.16%     98.81% # Bytes accessed per row activation
system.mem_ctrls.bytesPerActivate::1024-1151        71323      1.19%    100.00% # Bytes accessed per row activation
system.mem_ctrls.bytesPerActivate::total      5989922                       # Bytes accessed per row activation
system.mem_ctrls.rdPerTurnAround::samples        70861                       # Reads before turning the bus around for writes
system.mem_ctrls.rdPerTurnAround::mean     147.405371                       # Reads before turning the bus around for writes
system.mem_ctrls.rdPerTurnAround::gmean     76.781662                       # Reads before turning the bus around for writes
system.mem_ctrls.rdPerTurnAround::stdev    222.753853                       # Reads before turning the bus around for writes
system.mem_ctrls.rdPerTurnAround::0-511         64942     91.65%     91.65% # Reads before turning the bus around for writes
system.mem_ctrls.rdPerTurnAround::512-1023         5456      7.70%     99.35% # Reads before turning the bus around for writes
system.mem_ctrls.rdPerTurnAround::1024-1535          258      0.36%     99.71% # Reads before turning the bus around for writes
system.mem_ctrls.rdPerTurnAround::1536-2047          117      0.17%     99.88% # Reads before turning the bus around for writes
system.mem_ctrls.rdPerTurnAround::2048-2559           46      0.06%     99.94% # Reads before turning the bus around for writes
system.mem_ctrls.rdPerTurnAround::2560-3071           22      0.03%     99.97% # Reads before turning the bus around for writes
system.mem_ctrls.rdPerTurnAround::3072-3583           10      0.01%     99.99% # Reads before turning the bus around for writes
system.mem_ctrls.rdPerTurnAround::3584-4095            2      0.00%     99.99% # Reads before turning the bus around for writes
system.mem_ctrls.rdPerTurnAround::4608-5119            1      0.00%     99.99% # Reads before turning the bus around for writes
system.mem_ctrls.rdPerTurnAround::5120-5631            1      0.00%     99.99% # Reads before turning the bus around for writes
system.mem_ctrls.rdPerTurnAround::5632-6143            4      0.01%    100.00% # Reads before turning the bus around for writes
system.mem_ctrls.rdPerTurnAround::7168-7679            1      0.00%    100.00% # Reads before turning the bus around for writes
system.mem_ctrls.rdPerTurnAround::8192-8703            1      0.00%    100.00% # Reads before turning the bus around for writes
system.mem_ctrls.rdPerTurnAround::total         70861                       # Reads before turning the bus around for writes
system.mem_ctrls.wrPerTurnAround::samples        70861                       # Writes before turning the bus around for reads
system.mem_ctrls.wrPerTurnAround::mean      16.522431                       # Writes before turning the bus around for reads
system.mem_ctrls.wrPerTurnAround::gmean     16.500240                       # Writes before turning the bus around for reads
system.mem_ctrls.wrPerTurnAround::stdev      0.872476                       # Writes before turning the bus around for reads
system.mem_ctrls.wrPerTurnAround::16            51808     73.11%     73.11% # Writes before turning the bus around for reads
system.mem_ctrls.wrPerTurnAround::17             1248      1.76%     74.87% # Writes before turning the bus around for reads
system.mem_ctrls.wrPerTurnAround::18            17644     24.90%     99.77% # Writes before turning the bus around for reads
system.mem_ctrls.wrPerTurnAround::19              160      0.23%    100.00% # Writes before turning the bus around for reads
system.mem_ctrls.wrPerTurnAround::20                1      0.00%    100.00% # Writes before turning the bus around for reads
system.mem_ctrls.wrPerTurnAround::total         70861                       # Writes before turning the bus around for reads
system.mem_ctrls.totQLat                 161689506250                       # Total ticks spent queuing
system.mem_ctrls.totMemAccLat            357538975000                       # Total ticks spent from burst creation until serviced by the DRAM
system.mem_ctrls.totBusLat                52226525000                       # Total ticks spent in databus transfers
system.mem_ctrls.avgQLat                     15479.63                       # Average queueing delay per DRAM burst
system.mem_ctrls.avgBusLat                    5000.00                       # Average bus latency per DRAM burst
system.mem_ctrls.avgMemAccLat                34229.63                       # Average memory access latency per DRAM burst
system.mem_ctrls.avgRdBW                       346.58                       # Average DRAM read bandwidth in MiByte/s
system.mem_ctrls.avgWrBW                        38.85                       # Average achieved write bandwidth in MiByte/s
system.mem_ctrls.avgRdBWSys                    173.50                       # Average system read bandwidth in MiByte/s
system.mem_ctrls.avgWrBWSys                     21.39                       # Average system write bandwidth in MiByte/s
system.mem_ctrls.peakBW                      12800.00                       # Theoretical peak bandwidth in MiByte/s
system.mem_ctrls.busUtil                         3.01                       # Data bus utilization in percentage
system.mem_ctrls.busUtilRead                     2.71                       # Data bus utilization in percentage for reads
system.mem_ctrls.busUtilWrite                    0.30                       # Data bus utilization in percentage for writes
system.mem_ctrls.avgRdQLen                       1.00                       # Average read queue length when enqueuing
system.mem_ctrls.avgWrQLen                      25.16                       # Average write queue length when enqueuing
system.mem_ctrls.readRowHits                  5128727                       # Number of row buffer hits during reads
system.mem_ctrls.writeRowHits                  497452                       # Number of row buffer hits during writes
system.mem_ctrls.readRowHitRate                 49.10                       # Row buffer hit rate for reads
system.mem_ctrls.writeRowHitRate                42.49                       # Row buffer hit rate for writes
system.mem_ctrls.avgGap                     164195.47                       # Average gap between requests
system.mem_ctrls.pageHitRate                    48.43                       # Row buffer hit rate, read and write combined
system.mem_ctrls_0.actEnergy              22586384520                       # Energy for activate commands per rank (pJ)
system.mem_ctrls_0.preEnergy              12323920125                       # Energy for precharge commands per rank (pJ)
system.mem_ctrls_0.readEnergy             40647024600                       # Energy for read commands per rank (pJ)
system.mem_ctrls_0.writeEnergy             3823757280                       # Energy for write commands per rank (pJ)
system.mem_ctrls_0.refreshEnergy         125984043120                       # Energy for refresh commands per rank (pJ)
system.mem_ctrls_0.actBackEnergy         1036929890790                       # Energy for active background per rank (pJ)
system.mem_ctrls_0.preBackEnergy         247731136500                       # Energy for precharge background per rank (pJ)
system.mem_ctrls_0.totalEnergy           1490026156935                       # Total energy per rank (pJ)
system.mem_ctrls_0.averagePower            772.488726                       # Core power per rank (mW)
system.mem_ctrls_0.memoryStateTime::IDLE 405834668750                       # Time in different power states
system.mem_ctrls_0.memoryStateTime::REF   64409020000                       # Time in different power states
system.mem_ctrls_0.memoryStateTime::PRE_PDN            0                       # Time in different power states
system.mem_ctrls_0.memoryStateTime::ACT  1458620925000                       # Time in different power states
system.mem_ctrls_0.memoryStateTime::ACT_PDN            0                       # Time in different power states
system.mem_ctrls_1.actEnergy              22697425800                       # Energy for activate commands per rank (pJ)
system.mem_ctrls_1.preEnergy              12384508125                       # Energy for precharge commands per rank (pJ)
system.mem_ctrls_1.readEnergy             40826354400                       # Energy for read commands per rank (pJ)
system.mem_ctrls_1.writeEnergy             3763000800                       # Energy for write commands per rank (pJ)
system.mem_ctrls_1.refreshEnergy         125984043120                       # Energy for refresh commands per rank (pJ)
system.mem_ctrls_1.actBackEnergy         1036904756355                       # Energy for active background per rank (pJ)
system.mem_ctrls_1.preBackEnergy         247753184250                       # Energy for precharge background per rank (pJ)
system.mem_ctrls_1.totalEnergy           1490313272850                       # Total energy per rank (pJ)
system.mem_ctrls_1.averagePower            772.637578                       # Core power per rank (mW)
system.mem_ctrls_1.memoryStateTime::IDLE 405497377500                       # Time in different power states
system.mem_ctrls_1.memoryStateTime::REF   64409020000                       # Time in different power states
system.mem_ctrls_1.memoryStateTime::PRE_PDN            0                       # Time in different power states
system.mem_ctrls_1.memoryStateTime::ACT  1458958216250                       # Time in different power states
system.mem_ctrls_1.memoryStateTime::ACT_PDN            0                       # Time in different power states
system.cpu_voltage_domain.voltage                   1                       # Voltage in Volts
system.cpu_clk_domain.clock                       500                       # Clock period in ticks
system.cpu.apic_clk_domain.clock                 8000                       # Clock period in ticks
system.cpu.workload.num_syscalls                  168                       # Number of system calls
system.cpu.numCycles                       3857733555                       # number of cpu cycles simulated
system.cpu.numWorkItemsStarted                      0                       # number of work items this cpu started
system.cpu.numWorkItemsCompleted                    0                       # number of work items this cpu completed
system.cpu.committedInsts                   500000000                       # Number of instructions committed
system.cpu.committedOps                     876313783                       # Number of ops (including micro ops) committed
system.cpu.num_int_alu_accesses             872966680                       # Number of integer alu accesses
system.cpu.num_fp_alu_accesses                2882231                       # Number of float alu accesses
system.cpu.num_func_calls                    11025254                       # number of times a function call or return occured
system.cpu.num_conditional_control_insts     75981009                       # number of instructions that are conditional controls
system.cpu.num_int_insts                    872966680                       # number of integer instructions
system.cpu.num_fp_insts                       2882231                       # number of float instructions
system.cpu.num_int_register_reads          1835046958                       # number of times the integer registers were read
system.cpu.num_int_register_writes          703076418                       # number of times the integer registers were written
system.cpu.num_fp_register_reads              4386063                       # number of times the floating registers were read
system.cpu.num_fp_register_writes             2464405                       # number of times the floating registers were written
system.cpu.num_cc_register_reads            441654667                       # number of times the CC registers were read
system.cpu.num_cc_register_writes           253505512                       # number of times the CC registers were written
system.cpu.num_mem_refs                     293763599                       # number of memory refs
system.cpu.num_load_insts                   221285042                       # Number of load instructions
system.cpu.num_store_insts                   72478557                       # Number of store instructions
system.cpu.num_idle_cycles                          0                       # Number of idle cycles
system.cpu.num_busy_cycles                 3857733555                       # Number of busy cycles
system.cpu.not_idle_fraction                        1                       # Percentage of non-idle cycles
system.cpu.idle_fraction                            0                       # Percentage of idle cycles
system.cpu.Branches                          97901001                       # Number of branches fetched
system.cpu.op_class::No_OpClass                939429      0.11%      0.11% # Class of executed instruction
system.cpu.op_class::IntAlu                 578420254     66.01%     66.11% # Class of executed instruction
system.cpu.op_class::IntMult                   907073      0.10%     66.22% # Class of executed instruction
system.cpu.op_class::IntDiv                        42      0.00%     66.22% # Class of executed instruction
system.cpu.op_class::FloatAdd                 2283386      0.26%     66.48% # Class of executed instruction
system.cpu.op_class::FloatCmp                       0      0.00%     66.48% # Class of executed instruction
system.cpu.op_class::FloatCvt                       0      0.00%     66.48% # Class of executed instruction
system.cpu.op_class::FloatMult                      0      0.00%     66.48% # Class of executed instruction
system.cpu.op_class::FloatDiv                       0      0.00%     66.48% # Class of executed instruction
system.cpu.op_class::FloatSqrt                      0      0.00%     66.48% # Class of executed instruction
system.cpu.op_class::SimdAdd                        0      0.00%     66.48% # Class of executed instruction
system.cpu.op_class::SimdAddAcc                     0      0.00%     66.48% # Class of executed instruction
system.cpu.op_class::SimdAlu                        0      0.00%     66.48% # Class of executed instruction
system.cpu.op_class::SimdCmp                        0      0.00%     66.48% # Class of executed instruction
system.cpu.op_class::SimdCvt                        0      0.00%     66.48% # Class of executed instruction
system.cpu.op_class::SimdMisc                       0      0.00%     66.48% # Class of executed instruction
system.cpu.op_class::SimdMult                       0      0.00%     66.48% # Class of executed instruction
system.cpu.op_class::SimdMultAcc                    0      0.00%     66.48% # Class of executed instruction
system.cpu.op_class::SimdShift                      0      0.00%     66.48% # Class of executed instruction
system.cpu.op_class::SimdShiftAcc                   0      0.00%     66.48% # Class of executed instruction
system.cpu.op_class::SimdSqrt                       0      0.00%     66.48% # Class of executed instruction
system.cpu.op_class::SimdFloatAdd                   0      0.00%     66.48% # Class of executed instruction
system.cpu.op_class::SimdFloatAlu                   0      0.00%     66.48% # Class of executed instruction
system.cpu.op_class::SimdFloatCmp                   0      0.00%     66.48% # Class of executed instruction
system.cpu.op_class::SimdFloatCvt                   0      0.00%     66.48% # Class of executed instruction
system.cpu.op_class::SimdFloatDiv                   0      0.00%     66.48% # Class of executed instruction
system.cpu.op_class::SimdFloatMisc                  0      0.00%     66.48% # Class of executed instruction
system.cpu.op_class::SimdFloatMult                  0      0.00%     66.48% # Class of executed instruction
system.cpu.op_class::SimdFloatMultAcc               0      0.00%     66.48% # Class of executed instruction
system.cpu.op_class::SimdFloatSqrt                  0      0.00%     66.48% # Class of executed instruction
system.cpu.op_class::MemRead                221285042     25.25%     91.73% # Class of executed instruction
system.cpu.op_class::MemWrite                72478557      8.27%    100.00% # Class of executed instruction
system.cpu.op_class::IprAccess                      0      0.00%    100.00% # Class of executed instruction
system.cpu.op_class::InstPrefetch                   0      0.00%    100.00% # Class of executed instruction
system.cpu.op_class::total                  876313783                       # Class of executed instruction
system.cpu.dcache.tags.replacements          15602856                       # number of replacements
system.cpu.dcache.tags.tagsinuse          2047.602475                       # Cycle average of tags in use
system.cpu.dcache.tags.total_refs           278206946                       # Total number of references to valid blocks.
system.cpu.dcache.tags.sampled_refs          15604904                       # Sample count of references to valid blocks.
system.cpu.dcache.tags.avg_refs             17.828174                       # Average number of references to valid blocks.
system.cpu.dcache.tags.warmup_cycle        1102950500                       # Cycle when the warmup percentage was hit.
system.cpu.dcache.tags.occ_blocks::cpu.data  2047.602475                       # Average occupied blocks per requestor
system.cpu.dcache.tags.occ_percent::cpu.data     0.999806                       # Average percentage of cache occupancy
system.cpu.dcache.tags.occ_percent::total     0.999806                       # Average percentage of cache occupancy
system.cpu.dcache.tags.occ_task_id_blocks::1024         2048                       # Occupied blocks per task id
system.cpu.dcache.tags.age_task_id_blocks_1024::0            6                       # Occupied blocks per task id
system.cpu.dcache.tags.age_task_id_blocks_1024::1          831                       # Occupied blocks per task id
system.cpu.dcache.tags.age_task_id_blocks_1024::2         1142                       # Occupied blocks per task id
system.cpu.dcache.tags.age_task_id_blocks_1024::3           68                       # Occupied blocks per task id
system.cpu.dcache.tags.age_task_id_blocks_1024::4            1                       # Occupied blocks per task id
system.cpu.dcache.tags.occ_task_id_percent::1024            1                       # Percentage of cache occupancy per task id
system.cpu.dcache.tags.tag_accesses        1190852304                       # Number of tag accesses
system.cpu.dcache.tags.data_accesses       1190852304                       # Number of data accesses
system.cpu.dcache.ReadReq_hits::cpu.data    206439673                       # number of ReadReq hits
system.cpu.dcache.ReadReq_hits::total       206439673                       # number of ReadReq hits
system.cpu.dcache.WriteReq_hits::cpu.data     71767273                       # number of WriteReq hits
system.cpu.dcache.WriteReq_hits::total       71767273                       # number of WriteReq hits
system.cpu.dcache.demand_hits::cpu.data     278206946                       # number of demand (read+write) hits
system.cpu.dcache.demand_hits::total        278206946                       # number of demand (read+write) hits
system.cpu.dcache.overall_hits::cpu.data    278206946                       # number of overall hits
system.cpu.dcache.overall_hits::total       278206946                       # number of overall hits
system.cpu.dcache.ReadReq_misses::cpu.data     14893617                       # number of ReadReq misses
system.cpu.dcache.ReadReq_misses::total      14893617                       # number of ReadReq misses
system.cpu.dcache.WriteReq_misses::cpu.data       711287                       # number of WriteReq misses
system.cpu.dcache.WriteReq_misses::total       711287                       # number of WriteReq misses
system.cpu.dcache.demand_misses::cpu.data     15604904                       # number of demand (read+write) misses
system.cpu.dcache.demand_misses::total       15604904                       # number of demand (read+write) misses
system.cpu.dcache.overall_misses::cpu.data     15604904                       # number of overall misses
system.cpu.dcache.overall_misses::total      15604904                       # number of overall misses
system.cpu.dcache.ReadReq_miss_latency::cpu.data 933394410500                       # number of ReadReq miss cycles
system.cpu.dcache.ReadReq_miss_latency::total 933394410500                       # number of ReadReq miss cycles
system.cpu.dcache.WriteReq_miss_latency::cpu.data  39428862000                       # number of WriteReq miss cycles
system.cpu.dcache.WriteReq_miss_latency::total  39428862000                       # number of WriteReq miss cycles
system.cpu.dcache.demand_miss_latency::cpu.data 972823272500                       # number of demand (read+write) miss cycles
system.cpu.dcache.demand_miss_latency::total 972823272500                       # number of demand (read+write) miss cycles
system.cpu.dcache.overall_miss_latency::cpu.data 972823272500                       # number of overall miss cycles
system.cpu.dcache.overall_miss_latency::total 972823272500                       # number of overall miss cycles
system.cpu.dcache.ReadReq_accesses::cpu.data    221333290                       # number of ReadReq accesses(hits+misses)
system.cpu.dcache.ReadReq_accesses::total    221333290                       # number of ReadReq accesses(hits+misses)
system.cpu.dcache.WriteReq_accesses::cpu.data     72478560                       # number of WriteReq accesses(hits+misses)
system.cpu.dcache.WriteReq_accesses::total     72478560                       # number of WriteReq accesses(hits+misses)
system.cpu.dcache.demand_accesses::cpu.data    293811850                       # number of demand (read+write) accesses
system.cpu.dcache.demand_accesses::total    293811850                       # number of demand (read+write) accesses
system.cpu.dcache.overall_accesses::cpu.data    293811850                       # number of overall (read+write) accesses
system.cpu.dcache.overall_accesses::total    293811850                       # number of overall (read+write) accesses
system.cpu.dcache.ReadReq_miss_rate::cpu.data     0.067290                       # miss rate for ReadReq accesses
system.cpu.dcache.ReadReq_miss_rate::total     0.067290                       # miss rate for ReadReq accesses
system.cpu.dcache.WriteReq_miss_rate::cpu.data     0.009814                       # miss rate for WriteReq accesses
system.cpu.dcache.WriteReq_miss_rate::total     0.009814                       # miss rate for WriteReq accesses
system.cpu.dcache.demand_miss_rate::cpu.data     0.053112                       # miss rate for demand accesses
system.cpu.dcache.demand_miss_rate::total     0.053112                       # miss rate for demand accesses
system.cpu.dcache.overall_miss_rate::cpu.data     0.053112                       # miss rate for overall accesses
system.cpu.dcache.overall_miss_rate::total     0.053112                       # miss rate for overall accesses
system.cpu.dcache.ReadReq_avg_miss_latency::cpu.data 62670.767652                       # average ReadReq miss latency
system.cpu.dcache.ReadReq_avg_miss_latency::total 62670.767652                       # average ReadReq miss latency
system.cpu.dcache.WriteReq_avg_miss_latency::cpu.data 55433.126150                       # average WriteReq miss latency
system.cpu.dcache.WriteReq_avg_miss_latency::total 55433.126150                       # average WriteReq miss latency
system.cpu.dcache.demand_avg_miss_latency::cpu.data 62340.868774                       # average overall miss latency
system.cpu.dcache.demand_avg_miss_latency::total 62340.868774                       # average overall miss latency
system.cpu.dcache.overall_avg_miss_latency::cpu.data 62340.868774                       # average overall miss latency
system.cpu.dcache.overall_avg_miss_latency::total 62340.868774                       # average overall miss latency
system.cpu.dcache.blocked_cycles::no_mshrs            0                       # number of cycles access was blocked
system.cpu.dcache.blocked_cycles::no_targets            0                       # number of cycles access was blocked
system.cpu.dcache.blocked::no_mshrs                 0                       # number of cycles access was blocked
system.cpu.dcache.blocked::no_targets               0                       # number of cycles access was blocked
system.cpu.dcache.avg_blocked_cycles::no_mshrs          nan                       # average number of cycles each access was blocked
system.cpu.dcache.avg_blocked_cycles::no_targets          nan                       # average number of cycles each access was blocked
system.cpu.dcache.fast_writes                       0                       # number of fast writes performed
system.cpu.dcache.cache_copies                      0                       # number of cache copies performed
system.cpu.dcache.writebacks::writebacks      3305818                       # number of writebacks
system.cpu.dcache.writebacks::total           3305818                       # number of writebacks
system.cpu.dcache.ReadReq_mshr_misses::cpu.data     14893617                       # number of ReadReq MSHR misses
system.cpu.dcache.ReadReq_mshr_misses::total     14893617                       # number of ReadReq MSHR misses
system.cpu.dcache.WriteReq_mshr_misses::cpu.data       711287                       # number of WriteReq MSHR misses
system.cpu.dcache.WriteReq_mshr_misses::total       711287                       # number of WriteReq MSHR misses
system.cpu.dcache.demand_mshr_misses::cpu.data     15604904                       # number of demand (read+write) MSHR misses
system.cpu.dcache.demand_mshr_misses::total     15604904                       # number of demand (read+write) MSHR misses
system.cpu.dcache.overall_mshr_misses::cpu.data     15604904                       # number of overall MSHR misses
system.cpu.dcache.overall_mshr_misses::total     15604904                       # number of overall MSHR misses
system.cpu.dcache.ReadReq_mshr_miss_latency::cpu.data 918500793500                       # number of ReadReq MSHR miss cycles
system.cpu.dcache.ReadReq_mshr_miss_latency::total 918500793500                       # number of ReadReq MSHR miss cycles
system.cpu.dcache.WriteReq_mshr_miss_latency::cpu.data  38717575000                       # number of WriteReq MSHR miss cycles
system.cpu.dcache.WriteReq_mshr_miss_latency::total  38717575000                       # number of WriteReq MSHR miss cycles
system.cpu.dcache.demand_mshr_miss_latency::cpu.data 957218368500                       # number of demand (read+write) MSHR miss cycles
system.cpu.dcache.demand_mshr_miss_latency::total 957218368500                       # number of demand (read+write) MSHR miss cycles
system.cpu.dcache.overall_mshr_miss_latency::cpu.data 957218368500                       # number of overall MSHR miss cycles
system.cpu.dcache.overall_mshr_miss_latency::total 957218368500                       # number of overall MSHR miss cycles
system.cpu.dcache.ReadReq_mshr_miss_rate::cpu.data     0.067290                       # mshr miss rate for ReadReq accesses
system.cpu.dcache.ReadReq_mshr_miss_rate::total     0.067290                       # mshr miss rate for ReadReq accesses
system.cpu.dcache.WriteReq_mshr_miss_rate::cpu.data     0.009814                       # mshr miss rate for WriteReq accesses
system.cpu.dcache.WriteReq_mshr_miss_rate::total     0.009814                       # mshr miss rate for WriteReq accesses
system.cpu.dcache.demand_mshr_miss_rate::cpu.data     0.053112                       # mshr miss rate for demand accesses
system.cpu.dcache.demand_mshr_miss_rate::total     0.053112                       # mshr miss rate for demand accesses
system.cpu.dcache.overall_mshr_miss_rate::cpu.data     0.053112                       # mshr miss rate for overall accesses
system.cpu.dcache.overall_mshr_miss_rate::total     0.053112                       # mshr miss rate for overall accesses
system.cpu.dcache.ReadReq_avg_mshr_miss_latency::cpu.data 61670.767652                       # average ReadReq mshr miss latency
system.cpu.dcache.ReadReq_avg_mshr_miss_latency::total 61670.767652                       # average ReadReq mshr miss latency
system.cpu.dcache.WriteReq_avg_mshr_miss_latency::cpu.data 54433.126150                       # average WriteReq mshr miss latency
system.cpu.dcache.WriteReq_avg_mshr_miss_latency::total 54433.126150                       # average WriteReq mshr miss latency
system.cpu.dcache.demand_avg_mshr_miss_latency::cpu.data 61340.868774                       # average overall mshr miss latency
system.cpu.dcache.demand_avg_mshr_miss_latency::total 61340.868774                       # average overall mshr miss latency
system.cpu.dcache.overall_avg_mshr_miss_latency::cpu.data 61340.868774                       # average overall mshr miss latency
system.cpu.dcache.overall_avg_mshr_miss_latency::total 61340.868774                       # average overall mshr miss latency
system.cpu.dcache.no_allocate_misses                0                       # Number of misses that were no-allocate
system.cpu.dtb_walker_cache.tags.replacements            0                       # number of replacements
system.cpu.dtb_walker_cache.tags.tagsinuse            0                       # Cycle average of tags in use
system.cpu.dtb_walker_cache.tags.total_refs            0                       # Total number of references to valid blocks.
system.cpu.dtb_walker_cache.tags.sampled_refs            0                       # Sample count of references to valid blocks.
system.cpu.dtb_walker_cache.tags.avg_refs          nan                       # Average number of references to valid blocks.
system.cpu.dtb_walker_cache.tags.warmup_cycle            0                       # Cycle when the warmup percentage was hit.
system.cpu.dtb_walker_cache.tags.tag_accesses            0                       # Number of tag accesses
system.cpu.dtb_walker_cache.tags.data_accesses            0                       # Number of data accesses
system.cpu.dtb_walker_cache.blocked_cycles::no_mshrs            0                       # number of cycles access was blocked
system.cpu.dtb_walker_cache.blocked_cycles::no_targets            0                       # number of cycles access was blocked
system.cpu.dtb_walker_cache.blocked::no_mshrs            0                       # number of cycles access was blocked
system.cpu.dtb_walker_cache.blocked::no_targets            0                       # number of cycles access was blocked
system.cpu.dtb_walker_cache.avg_blocked_cycles::no_mshrs          nan                       # average number of cycles each access was blocked
system.cpu.dtb_walker_cache.avg_blocked_cycles::no_targets          nan                       # average number of cycles each access was blocked
system.cpu.dtb_walker_cache.fast_writes             0                       # number of fast writes performed
system.cpu.dtb_walker_cache.cache_copies            0                       # number of cache copies performed
system.cpu.dtb_walker_cache.no_allocate_misses            0                       # Number of misses that were no-allocate
system.cpu.icache.tags.replacements             38072                       # number of replacements
system.cpu.icache.tags.tagsinuse           868.495678                       # Cycle average of tags in use
system.cpu.icache.tags.total_refs           677278965                       # Total number of references to valid blocks.
system.cpu.icache.tags.sampled_refs             38981                       # Sample count of references to valid blocks.
system.cpu.icache.tags.avg_refs          17374.591852                       # Average number of references to valid blocks.
system.cpu.icache.tags.warmup_cycle                 0                       # Cycle when the warmup percentage was hit.
system.cpu.icache.tags.occ_blocks::cpu.inst   868.495678                       # Average occupied blocks per requestor
system.cpu.icache.tags.occ_percent::cpu.inst     0.424070                       # Average percentage of cache occupancy
system.cpu.icache.tags.occ_percent::total     0.424070                       # Average percentage of cache occupancy
system.cpu.icache.tags.occ_task_id_blocks::1024          909                       # Occupied blocks per task id
system.cpu.icache.tags.age_task_id_blocks_1024::4          909                       # Occupied blocks per task id
system.cpu.icache.tags.occ_task_id_percent::1024     0.443848                       # Percentage of cache occupancy per task id
system.cpu.icache.tags.tag_accesses         677356927                       # Number of tag accesses
system.cpu.icache.tags.data_accesses        677356927                       # Number of data accesses
system.cpu.icache.ReadReq_hits::cpu.inst    677278965                       # number of ReadReq hits
system.cpu.icache.ReadReq_hits::total       677278965                       # number of ReadReq hits
system.cpu.icache.demand_hits::cpu.inst     677278965                       # number of demand (read+write) hits
system.cpu.icache.demand_hits::total        677278965                       # number of demand (read+write) hits
system.cpu.icache.overall_hits::cpu.inst    677278965                       # number of overall hits
system.cpu.icache.overall_hits::total       677278965                       # number of overall hits
system.cpu.icache.ReadReq_misses::cpu.inst        38981                       # number of ReadReq misses
system.cpu.icache.ReadReq_misses::total         38981                       # number of ReadReq misses
system.cpu.icache.demand_misses::cpu.inst        38981                       # number of demand (read+write) misses
system.cpu.icache.demand_misses::total          38981                       # number of demand (read+write) misses
system.cpu.icache.overall_misses::cpu.inst        38981                       # number of overall misses
system.cpu.icache.overall_misses::total         38981                       # number of overall misses
system.cpu.icache.ReadReq_miss_latency::cpu.inst    584517000                       # number of ReadReq miss cycles
system.cpu.icache.ReadReq_miss_latency::total    584517000                       # number of ReadReq miss cycles
system.cpu.icache.demand_miss_latency::cpu.inst    584517000                       # number of demand (read+write) miss cycles
system.cpu.icache.demand_miss_latency::total    584517000                       # number of demand (read+write) miss cycles
system.cpu.icache.overall_miss_latency::cpu.inst    584517000                       # number of overall miss cycles
system.cpu.icache.overall_miss_latency::total    584517000                       # number of overall miss cycles
system.cpu.icache.ReadReq_accesses::cpu.inst    677317946                       # number of ReadReq accesses(hits+misses)
system.cpu.icache.ReadReq_accesses::total    677317946                       # number of ReadReq accesses(hits+misses)
system.cpu.icache.demand_accesses::cpu.inst    677317946                       # number of demand (read+write) accesses
system.cpu.icache.demand_accesses::total    677317946                       # number of demand (read+write) accesses
system.cpu.icache.overall_accesses::cpu.inst    677317946                       # number of overall (read+write) accesses
system.cpu.icache.overall_accesses::total    677317946                       # number of overall (read+write) accesses
system.cpu.icache.ReadReq_miss_rate::cpu.inst     0.000058                       # miss rate for ReadReq accesses
system.cpu.icache.ReadReq_miss_rate::total     0.000058                       # miss rate for ReadReq accesses
system.cpu.icache.demand_miss_rate::cpu.inst     0.000058                       # miss rate for demand accesses
system.cpu.icache.demand_miss_rate::total     0.000058                       # miss rate for demand accesses
system.cpu.icache.overall_miss_rate::cpu.inst     0.000058                       # miss rate for overall accesses
system.cpu.icache.overall_miss_rate::total     0.000058                       # miss rate for overall accesses
system.cpu.icache.ReadReq_avg_miss_latency::cpu.inst 14994.920602                       # average ReadReq miss latency
system.cpu.icache.ReadReq_avg_miss_latency::total 14994.920602                       # average ReadReq miss latency
system.cpu.icache.demand_avg_miss_latency::cpu.inst 14994.920602                       # average overall miss latency
system.cpu.icache.demand_avg_miss_latency::total 14994.920602                       # average overall miss latency
system.cpu.icache.overall_avg_miss_latency::cpu.inst 14994.920602                       # average overall miss latency
system.cpu.icache.overall_avg_miss_latency::total 14994.920602                       # average overall miss latency
system.cpu.icache.blocked_cycles::no_mshrs            0                       # number of cycles access was blocked
system.cpu.icache.blocked_cycles::no_targets            0                       # number of cycles access was blocked
system.cpu.icache.blocked::no_mshrs                 0                       # number of cycles access was blocked
system.cpu.icache.blocked::no_targets               0                       # number of cycles access was blocked
system.cpu.icache.avg_blocked_cycles::no_mshrs          nan                       # average number of cycles each access was blocked
system.cpu.icache.avg_blocked_cycles::no_targets          nan                       # average number of cycles each access was blocked
system.cpu.icache.fast_writes                       0                       # number of fast writes performed
system.cpu.icache.cache_copies                      0                       # number of cache copies performed
system.cpu.icache.writebacks::writebacks        38072                       # number of writebacks
system.cpu.icache.writebacks::total             38072                       # number of writebacks
system.cpu.icache.ReadReq_mshr_misses::cpu.inst        38981                       # number of ReadReq MSHR misses
system.cpu.icache.ReadReq_mshr_misses::total        38981                       # number of ReadReq MSHR misses
system.cpu.icache.demand_mshr_misses::cpu.inst        38981                       # number of demand (read+write) MSHR misses
system.cpu.icache.demand_mshr_misses::total        38981                       # number of demand (read+write) MSHR misses
system.cpu.icache.overall_mshr_misses::cpu.inst        38981                       # number of overall MSHR misses
system.cpu.icache.overall_mshr_misses::total        38981                       # number of overall MSHR misses
system.cpu.icache.ReadReq_mshr_miss_latency::cpu.inst    545536000                       # number of ReadReq MSHR miss cycles
system.cpu.icache.ReadReq_mshr_miss_latency::total    545536000                       # number of ReadReq MSHR miss cycles
system.cpu.icache.demand_mshr_miss_latency::cpu.inst    545536000                       # number of demand (read+write) MSHR miss cycles
system.cpu.icache.demand_mshr_miss_latency::total    545536000                       # number of demand (read+write) MSHR miss cycles
system.cpu.icache.overall_mshr_miss_latency::cpu.inst    545536000                       # number of overall MSHR miss cycles
system.cpu.icache.overall_mshr_miss_latency::total    545536000                       # number of overall MSHR miss cycles
system.cpu.icache.ReadReq_mshr_miss_rate::cpu.inst     0.000058                       # mshr miss rate for ReadReq accesses
system.cpu.icache.ReadReq_mshr_miss_rate::total     0.000058                       # mshr miss rate for ReadReq accesses
system.cpu.icache.demand_mshr_miss_rate::cpu.inst     0.000058                       # mshr miss rate for demand accesses
system.cpu.icache.demand_mshr_miss_rate::total     0.000058                       # mshr miss rate for demand accesses
system.cpu.icache.overall_mshr_miss_rate::cpu.inst     0.000058                       # mshr miss rate for overall accesses
system.cpu.icache.overall_mshr_miss_rate::total     0.000058                       # mshr miss rate for overall accesses
system.cpu.icache.ReadReq_avg_mshr_miss_latency::cpu.inst 13994.920602                       # average ReadReq mshr miss latency
system.cpu.icache.ReadReq_avg_mshr_miss_latency::total 13994.920602                       # average ReadReq mshr miss latency
system.cpu.icache.demand_avg_mshr_miss_latency::cpu.inst 13994.920602                       # average overall mshr miss latency
system.cpu.icache.demand_avg_mshr_miss_latency::total 13994.920602                       # average overall mshr miss latency
system.cpu.icache.overall_avg_mshr_miss_latency::cpu.inst 13994.920602                       # average overall mshr miss latency
system.cpu.icache.overall_avg_mshr_miss_latency::total 13994.920602                       # average overall mshr miss latency
system.cpu.icache.no_allocate_misses                0                       # Number of misses that were no-allocate
system.cpu.itb_walker_cache.tags.replacements            0                       # number of replacements
system.cpu.itb_walker_cache.tags.tagsinuse            0                       # Cycle average of tags in use
system.cpu.itb_walker_cache.tags.total_refs            0                       # Total number of references to valid blocks.
system.cpu.itb_walker_cache.tags.sampled_refs            0                       # Sample count of references to valid blocks.
system.cpu.itb_walker_cache.tags.avg_refs          nan                       # Average number of references to valid blocks.
system.cpu.itb_walker_cache.tags.warmup_cycle            0                       # Cycle when the warmup percentage was hit.
system.cpu.itb_walker_cache.tags.tag_accesses            0                       # Number of tag accesses
system.cpu.itb_walker_cache.tags.data_accesses            0                       # Number of data accesses
system.cpu.itb_walker_cache.blocked_cycles::no_mshrs            0                       # number of cycles access was blocked
system.cpu.itb_walker_cache.blocked_cycles::no_targets            0                       # number of cycles access was blocked
system.cpu.itb_walker_cache.blocked::no_mshrs            0                       # number of cycles access was blocked
system.cpu.itb_walker_cache.blocked::no_targets            0                       # number of cycles access was blocked
system.cpu.itb_walker_cache.avg_blocked_cycles::no_mshrs          nan                       # average number of cycles each access was blocked
system.cpu.itb_walker_cache.avg_blocked_cycles::no_targets          nan                       # average number of cycles each access was blocked
system.cpu.itb_walker_cache.fast_writes             0                       # number of fast writes performed
system.cpu.itb_walker_cache.cache_copies            0                       # number of cache copies performed
system.cpu.itb_walker_cache.no_allocate_misses            0                       # Number of misses that were no-allocate
system.l2.tags.replacements                  10538678                       # number of replacements
system.l2.tags.tagsinuse                 32294.027322                       # Cycle average of tags in use
system.l2.tags.total_refs                    19483444                       # Total number of references to valid blocks.
system.l2.tags.sampled_refs                  10571351                       # Sample count of references to valid blocks.
system.l2.tags.avg_refs                      1.843042                       # Average number of references to valid blocks.
system.l2.tags.warmup_cycle              1850876785000                       # Cycle when the warmup percentage was hit.
system.l2.tags.occ_blocks::writebacks     6177.634752                       # Average occupied blocks per requestor
system.l2.tags.occ_blocks::cpu.inst          3.206116                       # Average occupied blocks per requestor
system.l2.tags.occ_blocks::cpu.data      26113.186454                       # Average occupied blocks per requestor
system.l2.tags.occ_percent::writebacks       0.188526                       # Average percentage of cache occupancy
system.l2.tags.occ_percent::cpu.inst         0.000098                       # Average percentage of cache occupancy
system.l2.tags.occ_percent::cpu.data         0.796911                       # Average percentage of cache occupancy
system.l2.tags.occ_percent::total            0.985536                       # Average percentage of cache occupancy
system.l2.tags.occ_task_id_blocks::1024         32673                       # Occupied blocks per task id
system.l2.tags.age_task_id_blocks_1024::1          624                       # Occupied blocks per task id
system.l2.tags.age_task_id_blocks_1024::2         4655                       # Occupied blocks per task id
system.l2.tags.age_task_id_blocks_1024::3        18863                       # Occupied blocks per task id
system.l2.tags.age_task_id_blocks_1024::4         8531                       # Occupied blocks per task id
system.l2.tags.occ_task_id_percent::1024     0.997101                       # Percentage of cache occupancy per task id
system.l2.tags.tag_accesses                  42567450                       # Number of tag accesses
system.l2.tags.data_accesses                 42567450                       # Number of data accesses
system.l2.WritebackDirty_hits::writebacks      3305818                       # number of WritebackDirty hits
system.l2.WritebackDirty_hits::total          3305818                       # number of WritebackDirty hits
system.l2.WritebackClean_hits::writebacks        38071                       # number of WritebackClean hits
system.l2.WritebackClean_hits::total            38071                       # number of WritebackClean hits
system.l2.ReadExReq_hits::cpu.data             263151                       # number of ReadExReq hits
system.l2.ReadExReq_hits::total                263151                       # number of ReadExReq hits
system.l2.ReadCleanReq_hits::cpu.inst           37819                       # number of ReadCleanReq hits
system.l2.ReadCleanReq_hits::total              37819                       # number of ReadCleanReq hits
system.l2.ReadSharedReq_hits::cpu.data        4884785                       # number of ReadSharedReq hits
system.l2.ReadSharedReq_hits::total           4884785                       # number of ReadSharedReq hits
system.l2.demand_hits::cpu.inst                 37819                       # number of demand (read+write) hits
system.l2.demand_hits::cpu.data               5147936                       # number of demand (read+write) hits
system.l2.demand_hits::total                  5185755                       # number of demand (read+write) hits
system.l2.overall_hits::cpu.inst                37819                       # number of overall hits
system.l2.overall_hits::cpu.data              5147936                       # number of overall hits
system.l2.overall_hits::total                 5185755                       # number of overall hits
system.l2.ReadExReq_misses::cpu.data           448136                       # number of ReadExReq misses
system.l2.ReadExReq_misses::total              448136                       # number of ReadExReq misses
system.l2.ReadCleanReq_misses::cpu.inst          1162                       # number of ReadCleanReq misses
system.l2.ReadCleanReq_misses::total             1162                       # number of ReadCleanReq misses
system.l2.ReadSharedReq_misses::cpu.data     10008832                       # number of ReadSharedReq misses
system.l2.ReadSharedReq_misses::total        10008832                       # number of ReadSharedReq misses
system.l2.demand_misses::cpu.inst                1162                       # number of demand (read+write) misses
system.l2.demand_misses::cpu.data            10456968                       # number of demand (read+write) misses
system.l2.demand_misses::total               10458130                       # number of demand (read+write) misses
system.l2.overall_misses::cpu.inst               1162                       # number of overall misses
system.l2.overall_misses::cpu.data           10456968                       # number of overall misses
system.l2.overall_misses::total              10458130                       # number of overall misses
system.l2.ReadExReq_miss_latency::cpu.data  34887559000                       # number of ReadExReq miss cycles
system.l2.ReadExReq_miss_latency::total   34887559000                       # number of ReadExReq miss cycles
system.l2.ReadCleanReq_miss_latency::cpu.inst     89964000                       # number of ReadCleanReq miss cycles
system.l2.ReadCleanReq_miss_latency::total     89964000                       # number of ReadCleanReq miss cycles
system.l2.ReadSharedReq_miss_latency::cpu.data 844870125500                       # number of ReadSharedReq miss cycles
system.l2.ReadSharedReq_miss_latency::total 844870125500                       # number of ReadSharedReq miss cycles
system.l2.demand_miss_latency::cpu.inst      89964000                       # number of demand (read+write) miss cycles
system.l2.demand_miss_latency::cpu.data  879757684500                       # number of demand (read+write) miss cycles
system.l2.demand_miss_latency::total     879847648500                       # number of demand (read+write) miss cycles
system.l2.overall_miss_latency::cpu.inst     89964000                       # number of overall miss cycles
system.l2.overall_miss_latency::cpu.data 879757684500                       # number of overall miss cycles
system.l2.overall_miss_latency::total    879847648500                       # number of overall miss cycles
system.l2.WritebackDirty_accesses::writebacks      3305818                       # number of WritebackDirty accesses(hits+misses)
system.l2.WritebackDirty_accesses::total      3305818                       # number of WritebackDirty accesses(hits+misses)
system.l2.WritebackClean_accesses::writebacks        38071                       # number of WritebackClean accesses(hits+misses)
system.l2.WritebackClean_accesses::total        38071                       # number of WritebackClean accesses(hits+misses)
system.l2.ReadExReq_accesses::cpu.data         711287                       # number of ReadExReq accesses(hits+misses)
system.l2.ReadExReq_accesses::total            711287                       # number of ReadExReq accesses(hits+misses)
system.l2.ReadCleanReq_accesses::cpu.inst        38981                       # number of ReadCleanReq accesses(hits+misses)
system.l2.ReadCleanReq_accesses::total          38981                       # number of ReadCleanReq accesses(hits+misses)
system.l2.ReadSharedReq_accesses::cpu.data     14893617                       # number of ReadSharedReq accesses(hits+misses)
system.l2.ReadSharedReq_accesses::total      14893617                       # number of ReadSharedReq accesses(hits+misses)
system.l2.demand_accesses::cpu.inst             38981                       # number of demand (read+write) accesses
system.l2.demand_accesses::cpu.data          15604904                       # number of demand (read+write) accesses
system.l2.demand_accesses::total             15643885                       # number of demand (read+write) accesses
system.l2.overall_accesses::cpu.inst            38981                       # number of overall (read+write) accesses
system.l2.overall_accesses::cpu.data         15604904                       # number of overall (read+write) accesses
system.l2.overall_accesses::total            15643885                       # number of overall (read+write) accesses
system.l2.ReadExReq_miss_rate::cpu.data      0.630035                       # miss rate for ReadExReq accesses
system.l2.ReadExReq_miss_rate::total         0.630035                       # miss rate for ReadExReq accesses
system.l2.ReadCleanReq_miss_rate::cpu.inst     0.029809                       # miss rate for ReadCleanReq accesses
system.l2.ReadCleanReq_miss_rate::total      0.029809                       # miss rate for ReadCleanReq accesses
system.l2.ReadSharedReq_miss_rate::cpu.data     0.672022                       # miss rate for ReadSharedReq accesses
system.l2.ReadSharedReq_miss_rate::total     0.672022                       # miss rate for ReadSharedReq accesses
system.l2.demand_miss_rate::cpu.inst         0.029809                       # miss rate for demand accesses
system.l2.demand_miss_rate::cpu.data         0.670108                       # miss rate for demand accesses
system.l2.demand_miss_rate::total            0.668512                       # miss rate for demand accesses
system.l2.overall_miss_rate::cpu.inst        0.029809                       # miss rate for overall accesses
system.l2.overall_miss_rate::cpu.data        0.670108                       # miss rate for overall accesses
system.l2.overall_miss_rate::total           0.668512                       # miss rate for overall accesses
system.l2.ReadExReq_avg_miss_latency::cpu.data 77850.382473                       # average ReadExReq miss latency
system.l2.ReadExReq_avg_miss_latency::total 77850.382473                       # average ReadExReq miss latency
system.l2.ReadCleanReq_avg_miss_latency::cpu.inst 77421.686747                       # average ReadCleanReq miss latency
system.l2.ReadCleanReq_avg_miss_latency::total 77421.686747                       # average ReadCleanReq miss latency
system.l2.ReadSharedReq_avg_miss_latency::cpu.data 84412.459466                       # average ReadSharedReq miss latency
system.l2.ReadSharedReq_avg_miss_latency::total 84412.459466                       # average ReadSharedReq miss latency
system.l2.demand_avg_miss_latency::cpu.inst 77421.686747                       # average overall miss latency
system.l2.demand_avg_miss_latency::cpu.data 84131.240002                       # average overall miss latency
system.l2.demand_avg_miss_latency::total 84130.494505                       # average overall miss latency
system.l2.overall_avg_miss_latency::cpu.inst 77421.686747                       # average overall miss latency
system.l2.overall_avg_miss_latency::cpu.data 84131.240002                       # average overall miss latency
system.l2.overall_avg_miss_latency::total 84130.494505                       # average overall miss latency
system.l2.blocked_cycles::no_mshrs                  0                       # number of cycles access was blocked
system.l2.blocked_cycles::no_targets                0                       # number of cycles access was blocked
system.l2.blocked::no_mshrs                         0                       # number of cycles access was blocked
system.l2.blocked::no_targets                       0                       # number of cycles access was blocked
system.l2.avg_blocked_cycles::no_mshrs            nan                       # average number of cycles each access was blocked
system.l2.avg_blocked_cycles::no_targets          nan                       # average number of cycles each access was blocked
system.l2.fast_writes                               0                       # number of fast writes performed
system.l2.cache_copies                              0                       # number of cache copies performed
system.l2.writebacks::writebacks              1289148                       # number of writebacks
system.l2.writebacks::total                   1289148                       # number of writebacks
system.l2.CleanEvict_mshr_misses::writebacks       518306                       # number of CleanEvict MSHR misses
system.l2.CleanEvict_mshr_misses::total        518306                       # number of CleanEvict MSHR misses
system.l2.ReadExReq_mshr_misses::cpu.data       448136                       # number of ReadExReq MSHR misses
system.l2.ReadExReq_mshr_misses::total         448136                       # number of ReadExReq MSHR misses
system.l2.ReadCleanReq_mshr_misses::cpu.inst         1162                       # number of ReadCleanReq MSHR misses
system.l2.ReadCleanReq_mshr_misses::total         1162                       # number of ReadCleanReq MSHR misses
system.l2.ReadSharedReq_mshr_misses::cpu.data     10008832                       # number of ReadSharedReq MSHR misses
system.l2.ReadSharedReq_mshr_misses::total     10008832                       # number of ReadSharedReq MSHR misses
system.l2.demand_mshr_misses::cpu.inst           1162                       # number of demand (read+write) MSHR misses
system.l2.demand_mshr_misses::cpu.data       10456968                       # number of demand (read+write) MSHR misses
system.l2.demand_mshr_misses::total          10458130                       # number of demand (read+write) MSHR misses
system.l2.overall_mshr_misses::cpu.inst          1162                       # number of overall MSHR misses
system.l2.overall_mshr_misses::cpu.data      10456968                       # number of overall MSHR misses
system.l2.overall_mshr_misses::total         10458130                       # number of overall MSHR misses
system.l2.ReadExReq_mshr_miss_latency::cpu.data  30406199000                       # number of ReadExReq MSHR miss cycles
system.l2.ReadExReq_mshr_miss_latency::total  30406199000                       # number of ReadExReq MSHR miss cycles
system.l2.ReadCleanReq_mshr_miss_latency::cpu.inst     78344000                       # number of ReadCleanReq MSHR miss cycles
system.l2.ReadCleanReq_mshr_miss_latency::total     78344000                       # number of ReadCleanReq MSHR miss cycles
system.l2.ReadSharedReq_mshr_miss_latency::cpu.data 744781805500                       # number of ReadSharedReq MSHR miss cycles
system.l2.ReadSharedReq_mshr_miss_latency::total 744781805500                       # number of ReadSharedReq MSHR miss cycles
system.l2.demand_mshr_miss_latency::cpu.inst     78344000                       # number of demand (read+write) MSHR miss cycles
system.l2.demand_mshr_miss_latency::cpu.data 775188004500                       # number of demand (read+write) MSHR miss cycles
system.l2.demand_mshr_miss_latency::total 775266348500                       # number of demand (read+write) MSHR miss cycles
system.l2.overall_mshr_miss_latency::cpu.inst     78344000                       # number of overall MSHR miss cycles
system.l2.overall_mshr_miss_latency::cpu.data 775188004500                       # number of overall MSHR miss cycles
system.l2.overall_mshr_miss_latency::total 775266348500                       # number of overall MSHR miss cycles
system.l2.CleanEvict_mshr_miss_rate::writebacks          inf                       # mshr miss rate for CleanEvict accesses
system.l2.CleanEvict_mshr_miss_rate::total          inf                       # mshr miss rate for CleanEvict accesses
system.l2.ReadExReq_mshr_miss_rate::cpu.data     0.630035                       # mshr miss rate for ReadExReq accesses
system.l2.ReadExReq_mshr_miss_rate::total     0.630035                       # mshr miss rate for ReadExReq accesses
system.l2.ReadCleanReq_mshr_miss_rate::cpu.inst     0.029809                       # mshr miss rate for ReadCleanReq accesses
system.l2.ReadCleanReq_mshr_miss_rate::total     0.029809                       # mshr miss rate for ReadCleanReq accesses
system.l2.ReadSharedReq_mshr_miss_rate::cpu.data     0.672022                       # mshr miss rate for ReadSharedReq accesses
system.l2.ReadSharedReq_mshr_miss_rate::total     0.672022                       # mshr miss rate for ReadSharedReq accesses
system.l2.demand_mshr_miss_rate::cpu.inst     0.029809                       # mshr miss rate for demand accesses
system.l2.demand_mshr_miss_rate::cpu.data     0.670108                       # mshr miss rate for demand accesses
system.l2.demand_mshr_miss_rate::total       0.668512                       # mshr miss rate for demand accesses
system.l2.overall_mshr_miss_rate::cpu.inst     0.029809                       # mshr miss rate for overall accesses
system.l2.overall_mshr_miss_rate::cpu.data     0.670108                       # mshr miss rate for overall accesses
system.l2.overall_mshr_miss_rate::total      0.668512                       # mshr miss rate for overall accesses
system.l2.ReadExReq_avg_mshr_miss_latency::cpu.data 67850.382473                       # average ReadExReq mshr miss latency
system.l2.ReadExReq_avg_mshr_miss_latency::total 67850.382473                       # average ReadExReq mshr miss latency
system.l2.ReadCleanReq_avg_mshr_miss_latency::cpu.inst 67421.686747                       # average ReadCleanReq mshr miss latency
system.l2.ReadCleanReq_avg_mshr_miss_latency::total 67421.686747                       # average ReadCleanReq mshr miss latency
system.l2.ReadSharedReq_avg_mshr_miss_latency::cpu.data 74412.459466                       # average ReadSharedReq mshr miss latency
system.l2.ReadSharedReq_avg_mshr_miss_latency::total 74412.459466                       # average ReadSharedReq mshr miss latency
system.l2.demand_avg_mshr_miss_latency::cpu.inst 67421.686747                       # average overall mshr miss latency
system.l2.demand_avg_mshr_miss_latency::cpu.data 74131.240002                       # average overall mshr miss latency
system.l2.demand_avg_mshr_miss_latency::total 74130.494505                       # average overall mshr miss latency
system.l2.overall_avg_mshr_miss_latency::cpu.inst 67421.686747                       # average overall mshr miss latency
system.l2.overall_avg_mshr_miss_latency::cpu.data 74131.240002                       # average overall mshr miss latency
system.l2.overall_avg_mshr_miss_latency::total 74130.494505                       # average overall mshr miss latency
system.l2.no_allocate_misses                        0                       # Number of misses that were no-allocate
system.membus.trans_dist::ReadResp           10009994                       # Transaction distribution
system.membus.trans_dist::WritebackDirty      1289148                       # Transaction distribution
system.membus.trans_dist::CleanEvict          9135218                       # Transaction distribution
system.membus.trans_dist::ReadExReq            448136                       # Transaction distribution
system.membus.trans_dist::ReadExResp           448136                       # Transaction distribution
system.membus.trans_dist::ReadSharedReq      10009994                       # Transaction distribution
system.membus.pkt_count_system.l2.mem_side::system.mem_ctrls.port     31340626                       # Packet count per connected master and slave (bytes)
system.membus.pkt_count_system.l2.mem_side::total     31340626                       # Packet count per connected master and slave (bytes)
system.membus.pkt_count::total               31340626                       # Packet count per connected master and slave (bytes)
system.membus.pkt_size_system.l2.mem_side::system.mem_ctrls.port    375912896                       # Cumulative packet size per connected master and slave (bytes)
system.membus.pkt_size_system.l2.mem_side::total    375912896                       # Cumulative packet size per connected master and slave (bytes)
system.membus.pkt_size::total               375912896                       # Cumulative packet size per connected master and slave (bytes)
system.membus.snoops                                0                       # Total snoops (count)
system.membus.snoop_fanout::samples          20882496                       # Request fanout histogram
system.membus.snoop_fanout::mean                    0                       # Request fanout histogram
system.membus.snoop_fanout::stdev                   0                       # Request fanout histogram
system.membus.snoop_fanout::underflows              0      0.00%      0.00% # Request fanout histogram
system.membus.snoop_fanout::0                20882496    100.00%    100.00% # Request fanout histogram
system.membus.snoop_fanout::1                       0      0.00%    100.00% # Request fanout histogram
system.membus.snoop_fanout::overflows               0      0.00%    100.00% # Request fanout histogram
system.membus.snoop_fanout::min_value               0                       # Request fanout histogram
system.membus.snoop_fanout::max_value               0                       # Request fanout histogram
system.membus.snoop_fanout::total            20882496                       # Request fanout histogram
system.membus.reqLayer2.occupancy         23472682000                       # Layer occupancy (ticks)
system.membus.reqLayer2.utilization               1.2                       # Layer utilization (%)
system.membus.respLayer1.occupancy        36121905000                       # Layer occupancy (ticks)
system.membus.respLayer1.utilization              1.9                       # Layer utilization (%)
system.tol2bus.snoop_filter.tot_requests     31284813                       # Total number of requests made to the snoop filter.
system.tol2bus.snoop_filter.hit_single_requests     15640928                       # Number of requests hitting in the snoop filter with a single holder of the requested data.
system.tol2bus.snoop_filter.hit_multi_requests            1                       # Number of requests hitting in the snoop filter with multiple (>1) holders of the requested data.
system.tol2bus.snoop_filter.tot_snoops         632618                       # Total number of snoops made to the snoop filter.
system.tol2bus.snoop_filter.hit_single_snoops       632618                       # Number of snoops hitting in the snoop filter with a single holder of the requested data.
system.tol2bus.snoop_filter.hit_multi_snoops            0                       # Number of snoops hitting in the snoop filter with multiple (>1) holders of the requested data.
system.tol2bus.trans_dist::ReadResp          14932598                       # Transaction distribution
system.tol2bus.trans_dist::WritebackDirty      4594966                       # Transaction distribution
system.tol2bus.trans_dist::WritebackClean        38071                       # Transaction distribution
system.tol2bus.trans_dist::CleanEvict        21546568                       # Transaction distribution
system.tol2bus.trans_dist::ReadExReq           711287                       # Transaction distribution
system.tol2bus.trans_dist::ReadExResp          711287                       # Transaction distribution
system.tol2bus.trans_dist::ReadCleanReq         38981                       # Transaction distribution
system.tol2bus.trans_dist::ReadSharedReq     14893617                       # Transaction distribution
system.tol2bus.pkt_count_system.cpu.icache.mem_side::system.l2.cpu_side       116033                       # Packet count per connected master and slave (bytes)
system.tol2bus.pkt_count_system.cpu.dcache.mem_side::system.l2.cpu_side     46812664                       # Packet count per connected master and slave (bytes)
system.tol2bus.pkt_count::total              46928697                       # Packet count per connected master and slave (bytes)
system.tol2bus.pkt_size_system.cpu.icache.mem_side::system.l2.cpu_side      2465664                       # Cumulative packet size per connected master and slave (bytes)
system.tol2bus.pkt_size_system.cpu.dcache.mem_side::system.l2.cpu_side    605143104                       # Cumulative packet size per connected master and slave (bytes)
system.tol2bus.pkt_size::total              607608768                       # Cumulative packet size per connected master and slave (bytes)
system.tol2bus.snoops                        10538678                       # Total snoops (count)
system.tol2bus.snoop_fanout::samples         26182563                       # Request fanout histogram
system.tol2bus.snoop_fanout::mean            0.024162                       # Request fanout histogram
system.tol2bus.snoop_fanout::stdev           0.153551                       # Request fanout histogram
system.tol2bus.snoop_fanout::underflows             0      0.00%      0.00% # Request fanout histogram
system.tol2bus.snoop_fanout::0               25549944     97.58%     97.58% # Request fanout histogram
system.tol2bus.snoop_fanout::1                 632619      2.42%    100.00% # Request fanout histogram
system.tol2bus.snoop_fanout::2                      0      0.00%    100.00% # Request fanout histogram
system.tol2bus.snoop_fanout::3                      0      0.00%    100.00% # Request fanout histogram
system.tol2bus.snoop_fanout::4                      0      0.00%    100.00% # Request fanout histogram
system.tol2bus.snoop_fanout::overflows              0      0.00%    100.00% # Request fanout histogram
system.tol2bus.snoop_fanout::min_value              0                       # Request fanout histogram
system.tol2bus.snoop_fanout::max_value              1                       # Request fanout histogram
system.tol2bus.snoop_fanout::total           26182563                       # Request fanout histogram
system.tol2bus.reqLayer0.occupancy        17314351500                       # Layer occupancy (ticks)
system.tol2bus.reqLayer0.utilization              0.9                       # Layer utilization (%)
system.tol2bus.respLayer0.occupancy          38981000                       # Layer occupancy (ticks)
system.tol2bus.respLayer0.utilization             0.0                       # Layer utilization (%)
system.tol2bus.respLayer1.occupancy       15604904000                       # Layer occupancy (ticks)
system.tol2bus.respLayer1.utilization             0.8                       # Layer utilization (%)

---------- End Simulation Statistics   ----------
