
---------- Begin Simulation Statistics ----------
sim_seconds                                  1.688201                       # Number of seconds simulated
sim_ticks                                1688200612500                       # Number of ticks simulated
final_tick                               1688200612500                       # Number of ticks from beginning of simulation (restored from checkpoints and never reset)
sim_freq                                 1000000000000                       # Frequency of simulated ticks
host_inst_rate                                 373439                       # Simulator instruction rate (inst/s)
host_op_rate                                   654499                       # Simulator op (including micro ops) rate (op/s)
host_tick_rate                             1260878291                       # Simulator tick rate (ticks/s)
host_mem_usage                                 821560                       # Number of bytes of host memory used
host_seconds                                  1338.91                       # Real time elapsed on the host
sim_insts                                   500000000                       # Number of instructions simulated
sim_ops                                     876313783                       # Number of ops (including micro ops) simulated
system.voltage_domain.voltage                       1                       # Voltage in Volts
system.clk_domain.clock                          1000                       # Clock period in ticks
system.mem_ctrls.bytes_read::cpu.inst           43200                       # Number of bytes read from this memory
system.mem_ctrls.bytes_read::cpu.data       427223488                       # Number of bytes read from this memory
system.mem_ctrls.bytes_read::total          427266688                       # Number of bytes read from this memory
system.mem_ctrls.bytes_inst_read::cpu.inst        43200                       # Number of instructions bytes read from this memory
system.mem_ctrls.bytes_inst_read::total         43200                       # Number of instructions bytes read from this memory
system.mem_ctrls.bytes_written::writebacks     73961920                       # Number of bytes written to this memory
system.mem_ctrls.bytes_written::total        73961920                       # Number of bytes written to this memory
system.mem_ctrls.num_reads::cpu.inst              675                       # Number of read requests responded to by this memory
system.mem_ctrls.num_reads::cpu.data          6675367                       # Number of read requests responded to by this memory
system.mem_ctrls.num_reads::total             6676042                       # Number of read requests responded to by this memory
system.mem_ctrls.num_writes::writebacks       1155655                       # Number of write requests responded to by this memory
system.mem_ctrls.num_writes::total            1155655                       # Number of write requests responded to by this memory
system.mem_ctrls.bw_read::cpu.inst              25589                       # Total read bandwidth from this memory (bytes/s)
system.mem_ctrls.bw_read::cpu.data          253064408                       # Total read bandwidth from this memory (bytes/s)
system.mem_ctrls.bw_read::total             253089997                       # Total read bandwidth from this memory (bytes/s)
system.mem_ctrls.bw_inst_read::cpu.inst         25589                       # Instruction read bandwidth from this memory (bytes/s)
system.mem_ctrls.bw_inst_read::total            25589                       # Instruction read bandwidth from this memory (bytes/s)
system.mem_ctrls.bw_write::writebacks        43811097                       # Write bandwidth from this memory (bytes/s)
system.mem_ctrls.bw_write::total             43811097                       # Write bandwidth from this memory (bytes/s)
system.mem_ctrls.bw_total::writebacks        43811097                       # Total bandwidth to/from this memory (bytes/s)
system.mem_ctrls.bw_total::cpu.inst             25589                       # Total bandwidth to/from this memory (bytes/s)
system.mem_ctrls.bw_total::cpu.data         253064408                       # Total bandwidth to/from this memory (bytes/s)
system.mem_ctrls.bw_total::total            296901094                       # Total bandwidth to/from this memory (bytes/s)
system.mem_ctrls.readReqs                     6676042                       # Number of read requests accepted
system.mem_ctrls.writeReqs                    1155655                       # Number of write requests accepted
system.mem_ctrls.readBursts                   6676042                       # Number of DRAM read bursts, including those serviced by the write queue
system.mem_ctrls.writeBursts                  1155655                       # Number of DRAM write bursts, including those merged in the write queue
system.mem_ctrls.bytesReadDRAM              425498112                       # Total number of bytes read from DRAM
system.mem_ctrls.bytesReadWrQ                 1768576                       # Total number of bytes read from write queue
system.mem_ctrls.bytesWritten                73931072                       # Total number of bytes written to DRAM
system.mem_ctrls.bytesReadSys               427266688                       # Total read bytes from the system interface side
system.mem_ctrls.bytesWrittenSys             73961920                       # Total written bytes from the system interface side
system.mem_ctrls.servicedByWrQ                  27634                       # Number of DRAM read bursts serviced by the write queue
system.mem_ctrls.mergedWrBursts                   463                       # Number of DRAM write bursts merged with an existing one
system.mem_ctrls.neitherReadNorWriteReqs      5503331                       # Number of requests that are neither read nor write
system.mem_ctrls.perBankRdBursts::0            427007                       # Per bank write bursts
system.mem_ctrls.perBankRdBursts::1            408949                       # Per bank write bursts
system.mem_ctrls.perBankRdBursts::2            409894                       # Per bank write bursts
system.mem_ctrls.perBankRdBursts::3            440313                       # Per bank write bursts
system.mem_ctrls.perBankRdBursts::4            407317                       # Per bank write bursts
system.mem_ctrls.perBankRdBursts::5            405343                       # Per bank write bursts
system.mem_ctrls.perBankRdBursts::6            421300                       # Per bank write bursts
system.mem_ctrls.perBankRdBursts::7            402933                       # Per bank write bursts
system.mem_ctrls.perBankRdBursts::8            406627                       # Per bank write bursts
system.mem_ctrls.perBankRdBursts::9            406151                       # Per bank write bursts
system.mem_ctrls.perBankRdBursts::10           407866                       # Per bank write bursts
system.mem_ctrls.perBankRdBursts::11           411733                       # Per bank write bursts
system.mem_ctrls.perBankRdBursts::12           423233                       # Per bank write bursts
system.mem_ctrls.perBankRdBursts::13           426379                       # Per bank write bursts
system.mem_ctrls.perBankRdBursts::14           419865                       # Per bank write bursts
system.mem_ctrls.perBankRdBursts::15           423498                       # Per bank write bursts
system.mem_ctrls.perBankWrBursts::0             73056                       # Per bank write bursts
system.mem_ctrls.perBankWrBursts::1             72523                       # Per bank write bursts
system.mem_ctrls.perBankWrBursts::2             72361                       # Per bank write bursts
system.mem_ctrls.perBankWrBursts::3             85689                       # Per bank write bursts
system.mem_ctrls.perBankWrBursts::4             74847                       # Per bank write bursts
system.mem_ctrls.perBankWrBursts::5             67765                       # Per bank write bursts
system.mem_ctrls.perBankWrBursts::6             76770                       # Per bank write bursts
system.mem_ctrls.perBankWrBursts::7             67163                       # Per bank write bursts
system.mem_ctrls.perBankWrBursts::8             68050                       # Per bank write bursts
system.mem_ctrls.perBankWrBursts::9             67017                       # Per bank write bursts
system.mem_ctrls.perBankWrBursts::10            67446                       # Per bank write bursts
system.mem_ctrls.perBankWrBursts::11            70788                       # Per bank write bursts
system.mem_ctrls.perBankWrBursts::12            73084                       # Per bank write bursts
system.mem_ctrls.perBankWrBursts::13            73268                       # Per bank write bursts
system.mem_ctrls.perBankWrBursts::14            72588                       # Per bank write bursts
system.mem_ctrls.perBankWrBursts::15            72758                       # Per bank write bursts
system.mem_ctrls.numRdRetry                         0                       # Number of times read queue was full causing retry
system.mem_ctrls.numWrRetry                         0                       # Number of times write queue was full causing retry
system.mem_ctrls.totGap                  1688200311500                       # Total gap between requests
system.mem_ctrls.readPktSize::0                     0                       # Read request sizes (log2)
system.mem_ctrls.readPktSize::1                     0                       # Read request sizes (log2)
system.mem_ctrls.readPktSize::2                     0                       # Read request sizes (log2)
system.mem_ctrls.readPktSize::3                     0                       # Read request sizes (log2)
system.mem_ctrls.readPktSize::4                     0                       # Read request sizes (log2)
system.mem_ctrls.readPktSize::5                     0                       # Read request sizes (log2)
system.mem_ctrls.readPktSize::6               6676042                       # Read request sizes (log2)
system.mem_ctrls.writePktSize::0                    0                       # Write request sizes (log2)
system.mem_ctrls.writePktSize::1                    0                       # Write request sizes (log2)
system.mem_ctrls.writePktSize::2                    0                       # Write request sizes (log2)
system.mem_ctrls.writePktSize::3                    0                       # Write request sizes (log2)
system.mem_ctrls.writePktSize::4                    0                       # Write request sizes (log2)
system.mem_ctrls.writePktSize::5                    0                       # Write request sizes (log2)
system.mem_ctrls.writePktSize::6              1155655                       # Write request sizes (log2)
system.mem_ctrls.rdQLenPdf::0                 6648408                       # What read queue length does an incoming req see
system.mem_ctrls.rdQLenPdf::1                       0                       # What read queue length does an incoming req see
system.mem_ctrls.rdQLenPdf::2                       0                       # What read queue length does an incoming req see
system.mem_ctrls.rdQLenPdf::3                       0                       # What read queue length does an incoming req see
system.mem_ctrls.rdQLenPdf::4                       0                       # What read queue length does an incoming req see
system.mem_ctrls.rdQLenPdf::5                       0                       # What read queue length does an incoming req see
system.mem_ctrls.rdQLenPdf::6                       0                       # What read queue length does an incoming req see
system.mem_ctrls.rdQLenPdf::7                       0                       # What read queue length does an incoming req see
system.mem_ctrls.rdQLenPdf::8                       0                       # What read queue length does an incoming req see
system.mem_ctrls.rdQLenPdf::9                       0                       # What read queue length does an incoming req see
system.mem_ctrls.rdQLenPdf::10                      0                       # What read queue length does an incoming req see
system.mem_ctrls.rdQLenPdf::11                      0                       # What read queue length does an incoming req see
system.mem_ctrls.rdQLenPdf::12                      0                       # What read queue length does an incoming req see
system.mem_ctrls.rdQLenPdf::13                      0                       # What read queue length does an incoming req see
system.mem_ctrls.rdQLenPdf::14                      0                       # What read queue length does an incoming req see
system.mem_ctrls.rdQLenPdf::15                      0                       # What read queue length does an incoming req see
system.mem_ctrls.rdQLenPdf::16                      0                       # What read queue length does an incoming req see
system.mem_ctrls.rdQLenPdf::17                      0                       # What read queue length does an incoming req see
system.mem_ctrls.rdQLenPdf::18                      0                       # What read queue length does an incoming req see
system.mem_ctrls.rdQLenPdf::19                      0                       # What read queue length does an incoming req see
system.mem_ctrls.rdQLenPdf::20                      0                       # What read queue length does an incoming req see
system.mem_ctrls.rdQLenPdf::21                      0                       # What read queue length does an incoming req see
system.mem_ctrls.rdQLenPdf::22                      0                       # What read queue length does an incoming req see
system.mem_ctrls.rdQLenPdf::23                      0                       # What read queue length does an incoming req see
system.mem_ctrls.rdQLenPdf::24                      0                       # What read queue length does an incoming req see
system.mem_ctrls.rdQLenPdf::25                      0                       # What read queue length does an incoming req see
system.mem_ctrls.rdQLenPdf::26                      0                       # What read queue length does an incoming req see
system.mem_ctrls.rdQLenPdf::27                      0                       # What read queue length does an incoming req see
system.mem_ctrls.rdQLenPdf::28                      0                       # What read queue length does an incoming req see
system.mem_ctrls.rdQLenPdf::29                      0                       # What read queue length does an incoming req see
system.mem_ctrls.rdQLenPdf::30                      0                       # What read queue length does an incoming req see
system.mem_ctrls.rdQLenPdf::31                      0                       # What read queue length does an incoming req see
system.mem_ctrls.wrQLenPdf::0                       1                       # What write queue length does an incoming req see
system.mem_ctrls.wrQLenPdf::1                       1                       # What write queue length does an incoming req see
system.mem_ctrls.wrQLenPdf::2                       1                       # What write queue length does an incoming req see
system.mem_ctrls.wrQLenPdf::3                       1                       # What write queue length does an incoming req see
system.mem_ctrls.wrQLenPdf::4                       1                       # What write queue length does an incoming req see
system.mem_ctrls.wrQLenPdf::5                       1                       # What write queue length does an incoming req see
system.mem_ctrls.wrQLenPdf::6                       1                       # What write queue length does an incoming req see
system.mem_ctrls.wrQLenPdf::7                       1                       # What write queue length does an incoming req see
system.mem_ctrls.wrQLenPdf::8                       1                       # What write queue length does an incoming req see
system.mem_ctrls.wrQLenPdf::9                       1                       # What write queue length does an incoming req see
system.mem_ctrls.wrQLenPdf::10                      1                       # What write queue length does an incoming req see
system.mem_ctrls.wrQLenPdf::11                      1                       # What write queue length does an incoming req see
system.mem_ctrls.wrQLenPdf::12                      1                       # What write queue length does an incoming req see
system.mem_ctrls.wrQLenPdf::13                      1                       # What write queue length does an incoming req see
system.mem_ctrls.wrQLenPdf::14                      1                       # What write queue length does an incoming req see
system.mem_ctrls.wrQLenPdf::15                  35145                       # What write queue length does an incoming req see
system.mem_ctrls.wrQLenPdf::16                  35987                       # What write queue length does an incoming req see
system.mem_ctrls.wrQLenPdf::17                  67745                       # What write queue length does an incoming req see
system.mem_ctrls.wrQLenPdf::18                  67776                       # What write queue length does an incoming req see
system.mem_ctrls.wrQLenPdf::19                  67763                       # What write queue length does an incoming req see
system.mem_ctrls.wrQLenPdf::20                  67753                       # What write queue length does an incoming req see
system.mem_ctrls.wrQLenPdf::21                  67745                       # What write queue length does an incoming req see
system.mem_ctrls.wrQLenPdf::22                  67743                       # What write queue length does an incoming req see
system.mem_ctrls.wrQLenPdf::23                  67745                       # What write queue length does an incoming req see
system.mem_ctrls.wrQLenPdf::24                  67746                       # What write queue length does an incoming req see
system.mem_ctrls.wrQLenPdf::25                  67770                       # What write queue length does an incoming req see
system.mem_ctrls.wrQLenPdf::26                  67739                       # What write queue length does an incoming req see
system.mem_ctrls.wrQLenPdf::27                  67771                       # What write queue length does an incoming req see
system.mem_ctrls.wrQLenPdf::28                  67785                       # What write queue length does an incoming req see
system.mem_ctrls.wrQLenPdf::29                  67744                       # What write queue length does an incoming req see
system.mem_ctrls.wrQLenPdf::30                  67746                       # What write queue length does an incoming req see
system.mem_ctrls.wrQLenPdf::31                  67737                       # What write queue length does an incoming req see
system.mem_ctrls.wrQLenPdf::32                  67737                       # What write queue length does an incoming req see
system.mem_ctrls.wrQLenPdf::33                      0                       # What write queue length does an incoming req see
system.mem_ctrls.wrQLenPdf::34                      0                       # What write queue length does an incoming req see
system.mem_ctrls.wrQLenPdf::35                      0                       # What write queue length does an incoming req see
system.mem_ctrls.wrQLenPdf::36                      0                       # What write queue length does an incoming req see
system.mem_ctrls.wrQLenPdf::37                      0                       # What write queue length does an incoming req see
system.mem_ctrls.wrQLenPdf::38                      0                       # What write queue length does an incoming req see
system.mem_ctrls.wrQLenPdf::39                      0                       # What write queue length does an incoming req see
system.mem_ctrls.wrQLenPdf::40                      0                       # What write queue length does an incoming req see
system.mem_ctrls.wrQLenPdf::41                      0                       # What write queue length does an incoming req see
system.mem_ctrls.wrQLenPdf::42                      0                       # What write queue length does an incoming req see
system.mem_ctrls.wrQLenPdf::43                      0                       # What write queue length does an incoming req see
system.mem_ctrls.wrQLenPdf::44                      0                       # What write queue length does an incoming req see
system.mem_ctrls.wrQLenPdf::45                      0                       # What write queue length does an incoming req see
system.mem_ctrls.wrQLenPdf::46                      0                       # What write queue length does an incoming req see
system.mem_ctrls.wrQLenPdf::47                      0                       # What write queue length does an incoming req see
system.mem_ctrls.wrQLenPdf::48                      0                       # What write queue length does an incoming req see
system.mem_ctrls.wrQLenPdf::49                      0                       # What write queue length does an incoming req see
system.mem_ctrls.wrQLenPdf::50                      0                       # What write queue length does an incoming req see
system.mem_ctrls.wrQLenPdf::51                      0                       # What write queue length does an incoming req see
system.mem_ctrls.wrQLenPdf::52                      0                       # What write queue length does an incoming req see
system.mem_ctrls.wrQLenPdf::53                      0                       # What write queue length does an incoming req see
system.mem_ctrls.wrQLenPdf::54                      0                       # What write queue length does an incoming req see
system.mem_ctrls.wrQLenPdf::55                      0                       # What write queue length does an incoming req see
system.mem_ctrls.wrQLenPdf::56                      0                       # What write queue length does an incoming req see
system.mem_ctrls.wrQLenPdf::57                      0                       # What write queue length does an incoming req see
system.mem_ctrls.wrQLenPdf::58                      0                       # What write queue length does an incoming req see
system.mem_ctrls.wrQLenPdf::59                      0                       # What write queue length does an incoming req see
system.mem_ctrls.wrQLenPdf::60                      0                       # What write queue length does an incoming req see
system.mem_ctrls.wrQLenPdf::61                      0                       # What write queue length does an incoming req see
system.mem_ctrls.wrQLenPdf::62                      0                       # What write queue length does an incoming req see
system.mem_ctrls.wrQLenPdf::63                      0                       # What write queue length does an incoming req see
system.mem_ctrls.bytesPerActivate::samples      5923802                       # Bytes accessed per row activation
system.mem_ctrls.bytesPerActivate::mean     84.308881                       # Bytes accessed per row activation
system.mem_ctrls.bytesPerActivate::gmean    71.108662                       # Bytes accessed per row activation
system.mem_ctrls.bytesPerActivate::stdev   109.772893                       # Bytes accessed per row activation
system.mem_ctrls.bytesPerActivate::0-127      5384132     90.89%     90.89% # Bytes accessed per row activation
system.mem_ctrls.bytesPerActivate::128-255       395433      6.68%     97.57% # Bytes accessed per row activation
system.mem_ctrls.bytesPerActivate::256-383        32864      0.55%     98.12% # Bytes accessed per row activation
system.mem_ctrls.bytesPerActivate::384-511        15953      0.27%     98.39% # Bytes accessed per row activation
system.mem_ctrls.bytesPerActivate::512-639        11154      0.19%     98.58% # Bytes accessed per row activation
system.mem_ctrls.bytesPerActivate::640-767        10998      0.19%     98.76% # Bytes accessed per row activation
system.mem_ctrls.bytesPerActivate::768-895        12033      0.20%     98.97% # Bytes accessed per row activation
system.mem_ctrls.bytesPerActivate::896-1023         8633      0.15%     99.11% # Bytes accessed per row activation
system.mem_ctrls.bytesPerActivate::1024-1151        52602      0.89%    100.00% # Bytes accessed per row activation
system.mem_ctrls.bytesPerActivate::total      5923802                       # Bytes accessed per row activation
system.mem_ctrls.rdPerTurnAround::samples        67737                       # Reads before turning the bus around for writes
system.mem_ctrls.rdPerTurnAround::mean      98.150140                       # Reads before turning the bus around for writes
system.mem_ctrls.rdPerTurnAround::gmean     56.827338                       # Reads before turning the bus around for writes
system.mem_ctrls.rdPerTurnAround::stdev    139.995474                       # Reads before turning the bus around for writes
system.mem_ctrls.rdPerTurnAround::0-255         59910     88.45%     88.45% # Reads before turning the bus around for writes
system.mem_ctrls.rdPerTurnAround::256-511         7189     10.61%     99.06% # Reads before turning the bus around for writes
system.mem_ctrls.rdPerTurnAround::512-767          367      0.54%     99.60% # Reads before turning the bus around for writes
system.mem_ctrls.rdPerTurnAround::768-1023          134      0.20%     99.80% # Reads before turning the bus around for writes
system.mem_ctrls.rdPerTurnAround::1024-1279           73      0.11%     99.91% # Reads before turning the bus around for writes
system.mem_ctrls.rdPerTurnAround::1280-1535           23      0.03%     99.94% # Reads before turning the bus around for writes
system.mem_ctrls.rdPerTurnAround::1536-1791           12      0.02%     99.96% # Reads before turning the bus around for writes
system.mem_ctrls.rdPerTurnAround::1792-2047            8      0.01%     99.97% # Reads before turning the bus around for writes
system.mem_ctrls.rdPerTurnAround::2048-2303            8      0.01%     99.98% # Reads before turning the bus around for writes
system.mem_ctrls.rdPerTurnAround::2304-2559            3      0.00%     99.99% # Reads before turning the bus around for writes
system.mem_ctrls.rdPerTurnAround::2560-2815            1      0.00%     99.99% # Reads before turning the bus around for writes
system.mem_ctrls.rdPerTurnAround::2816-3071            3      0.00%     99.99% # Reads before turning the bus around for writes
system.mem_ctrls.rdPerTurnAround::3328-3583            1      0.00%     99.99% # Reads before turning the bus around for writes
system.mem_ctrls.rdPerTurnAround::4608-4863            1      0.00%     99.99% # Reads before turning the bus around for writes
system.mem_ctrls.rdPerTurnAround::4864-5119            2      0.00%    100.00% # Reads before turning the bus around for writes
system.mem_ctrls.rdPerTurnAround::5632-5887            1      0.00%    100.00% # Reads before turning the bus around for writes
system.mem_ctrls.rdPerTurnAround::6912-7167            1      0.00%    100.00% # Reads before turning the bus around for writes
system.mem_ctrls.rdPerTurnAround::total         67737                       # Reads before turning the bus around for writes
system.mem_ctrls.wrPerTurnAround::samples        67737                       # Writes before turning the bus around for reads
system.mem_ctrls.wrPerTurnAround::mean      17.053796                       # Writes before turning the bus around for reads
system.mem_ctrls.wrPerTurnAround::gmean     17.024493                       # Writes before turning the bus around for reads
system.mem_ctrls.wrPerTurnAround::stdev      0.997576                       # Writes before turning the bus around for reads
system.mem_ctrls.wrPerTurnAround::16            31747     46.87%     46.87% # Writes before turning the bus around for reads
system.mem_ctrls.wrPerTurnAround::17              832      1.23%     48.10% # Writes before turning the bus around for reads
system.mem_ctrls.wrPerTurnAround::18            34925     51.56%     99.66% # Writes before turning the bus around for reads
system.mem_ctrls.wrPerTurnAround::19              233      0.34%    100.00% # Writes before turning the bus around for reads
system.mem_ctrls.wrPerTurnAround::total         67737                       # Writes before turning the bus around for reads
system.mem_ctrls.totQLat                 152020053750                       # Total ticks spent queuing
system.mem_ctrls.totMemAccLat            276677703750                       # Total ticks spent from burst creation until serviced by the DRAM
system.mem_ctrls.totBusLat                33242040000                       # Total ticks spent in databus transfers
system.mem_ctrls.avgQLat                     22865.63                       # Average queueing delay per DRAM burst
system.mem_ctrls.avgBusLat                    5000.00                       # Average bus latency per DRAM burst
system.mem_ctrls.avgMemAccLat                41615.63                       # Average memory access latency per DRAM burst
system.mem_ctrls.avgRdBW                       252.04                       # Average DRAM read bandwidth in MiByte/s
system.mem_ctrls.avgWrBW                        43.79                       # Average achieved write bandwidth in MiByte/s
system.mem_ctrls.avgRdBWSys                    253.09                       # Average system read bandwidth in MiByte/s
system.mem_ctrls.avgWrBWSys                     43.81                       # Average system write bandwidth in MiByte/s
system.mem_ctrls.peakBW                      12800.00                       # Theoretical peak bandwidth in MiByte/s
system.mem_ctrls.busUtil                         2.31                       # Data bus utilization in percentage
system.mem_ctrls.busUtilRead                     1.97                       # Data bus utilization in percentage for reads
system.mem_ctrls.busUtilWrite                    0.34                       # Data bus utilization in percentage for writes
system.mem_ctrls.avgRdQLen                       1.00                       # Average read queue length when enqueuing
system.mem_ctrls.avgWrQLen                      24.82                       # Average write queue length when enqueuing
system.mem_ctrls.readRowHits                  1342104                       # Number of row buffer hits during reads
system.mem_ctrls.writeRowHits                  537674                       # Number of row buffer hits during writes
system.mem_ctrls.readRowHitRate                 20.19                       # Row buffer hit rate for reads
system.mem_ctrls.writeRowHitRate                46.54                       # Row buffer hit rate for writes
system.mem_ctrls.avgGap                     215559.96                       # Average gap between requests
system.mem_ctrls.pageHitRate                    24.09                       # Row buffer hit rate, read and write combined
system.mem_ctrls_0.actEnergy              22434534360                       # Energy for activate commands per rank (pJ)
system.mem_ctrls_0.preEnergy              12241065375                       # Energy for precharge commands per rank (pJ)
system.mem_ctrls_0.readEnergy             25919829000                       # Energy for read commands per rank (pJ)
system.mem_ctrls_0.writeEnergy             3824327520                       # Energy for write commands per rank (pJ)
system.mem_ctrls_0.refreshEnergy         110264962080                       # Energy for refresh commands per rank (pJ)
system.mem_ctrls_0.actBackEnergy         890063465355                       # Energy for active background per rank (pJ)
system.mem_ctrls_0.preBackEnergy         232162213500                       # Energy for precharge background per rank (pJ)
system.mem_ctrls_0.totalEnergy           1296910397190                       # Total energy per rank (pJ)
system.mem_ctrls_0.averagePower            768.221099                       # Core power per rank (mW)
system.mem_ctrls_0.memoryStateTime::IDLE 380840966750                       # Time in different power states
system.mem_ctrls_0.memoryStateTime::REF   56372680000                       # Time in different power states
system.mem_ctrls_0.memoryStateTime::PRE_PDN            0                       # Time in different power states
system.mem_ctrls_0.memoryStateTime::ACT  1250986604250                       # Time in different power states
system.mem_ctrls_0.memoryStateTime::ACT_PDN            0                       # Time in different power states
system.mem_ctrls_1.actEnergy              22349408760                       # Energy for activate commands per rank (pJ)
system.mem_ctrls_1.preEnergy              12194617875                       # Energy for precharge commands per rank (pJ)
system.mem_ctrls_1.readEnergy             25937745600                       # Energy for read commands per rank (pJ)
system.mem_ctrls_1.writeEnergy             3661193520                       # Energy for write commands per rank (pJ)
system.mem_ctrls_1.refreshEnergy         110264962080                       # Energy for refresh commands per rank (pJ)
system.mem_ctrls_1.actBackEnergy         879128850690                       # Energy for active background per rank (pJ)
system.mem_ctrls_1.preBackEnergy         241753980750                       # Energy for precharge background per rank (pJ)
system.mem_ctrls_1.totalEnergy           1295290759275                       # Total energy per rank (pJ)
system.mem_ctrls_1.averagePower            767.261711                       # Core power per rank (mW)
system.mem_ctrls_1.memoryStateTime::IDLE 396535532250                       # Time in different power states
system.mem_ctrls_1.memoryStateTime::REF   56372680000                       # Time in different power states
system.mem_ctrls_1.memoryStateTime::PRE_PDN            0                       # Time in different power states
system.mem_ctrls_1.memoryStateTime::ACT  1235291200250                       # Time in different power states
system.mem_ctrls_1.memoryStateTime::ACT_PDN            0                       # Time in different power states
system.cpu_voltage_domain.voltage                   1                       # Voltage in Volts
system.cpu_clk_domain.clock                       500                       # Clock period in ticks
system.cpu.apic_clk_domain.clock                 8000                       # Clock period in ticks
system.cpu.workload.num_syscalls                  168                       # Number of system calls
system.cpu.numCycles                       3376401225                       # number of cpu cycles simulated
system.cpu.numWorkItemsStarted                      0                       # number of work items this cpu started
system.cpu.numWorkItemsCompleted                    0                       # number of work items this cpu completed
system.cpu.committedInsts                   500000000                       # Number of instructions committed
system.cpu.committedOps                     876313783                       # Number of ops (including micro ops) committed
system.cpu.num_int_alu_accesses             872966680                       # Number of integer alu accesses
system.cpu.num_fp_alu_accesses                2882231                       # Number of float alu accesses
system.cpu.num_func_calls                    11025254                       # number of times a function call or return occured
system.cpu.num_conditional_control_insts     75981009                       # number of instructions that are conditional controls
system.cpu.num_int_insts                    872966680                       # number of integer instructions
system.cpu.num_fp_insts                       2882231                       # number of float instructions
system.cpu.num_int_register_reads          1835046958                       # number of times the integer registers were read
system.cpu.num_int_register_writes          703076418                       # number of times the integer registers were written
system.cpu.num_fp_register_reads              4386063                       # number of times the floating registers were read
system.cpu.num_fp_register_writes             2464405                       # number of times the floating registers were written
system.cpu.num_cc_register_reads            441654667                       # number of times the CC registers were read
system.cpu.num_cc_register_writes           253505512                       # number of times the CC registers were written
system.cpu.num_mem_refs                     293763599                       # number of memory refs
system.cpu.num_load_insts                   221285042                       # Number of load instructions
system.cpu.num_store_insts                   72478557                       # Number of store instructions
system.cpu.num_idle_cycles                          0                       # Number of idle cycles
system.cpu.num_busy_cycles                 3376401225                       # Number of busy cycles
system.cpu.not_idle_fraction                        1                       # Percentage of non-idle cycles
system.cpu.idle_fraction                            0                       # Percentage of idle cycles
system.cpu.Branches                          97901001                       # Number of branches fetched
system.cpu.op_class::No_OpClass                939429      0.11%      0.11% # Class of executed instruction
system.cpu.op_class::IntAlu                 578420254     66.01%     66.11% # Class of executed instruction
system.cpu.op_class::IntMult                   907073      0.10%     66.22% # Class of executed instruction
system.cpu.op_class::IntDiv                        42      0.00%     66.22% # Class of executed instruction
system.cpu.op_class::FloatAdd                 2283386      0.26%     66.48% # Class of executed instruction
system.cpu.op_class::FloatCmp                       0      0.00%     66.48% # Class of executed instruction
system.cpu.op_class::FloatCvt                       0      0.00%     66.48% # Class of executed instruction
system.cpu.op_class::FloatMult                      0      0.00%     66.48% # Class of executed instruction
system.cpu.op_class::FloatDiv                       0      0.00%     66.48% # Class of executed instruction
system.cpu.op_class::FloatSqrt                      0      0.00%     66.48% # Class of executed instruction
system.cpu.op_class::SimdAdd                        0      0.00%     66.48% # Class of executed instruction
system.cpu.op_class::SimdAddAcc                     0      0.00%     66.48% # Class of executed instruction
system.cpu.op_class::SimdAlu                        0      0.00%     66.48% # Class of executed instruction
system.cpu.op_class::SimdCmp                        0      0.00%     66.48% # Class of executed instruction
system.cpu.op_class::SimdCvt                        0      0.00%     66.48% # Class of executed instruction
system.cpu.op_class::SimdMisc                       0      0.00%     66.48% # Class of executed instruction
system.cpu.op_class::SimdMult                       0      0.00%     66.48% # Class of executed instruction
system.cpu.op_class::SimdMultAcc                    0      0.00%     66.48% # Class of executed instruction
system.cpu.op_class::SimdShift                      0      0.00%     66.48% # Class of executed instruction
system.cpu.op_class::SimdShiftAcc                   0      0.00%     66.48% # Class of executed instruction
system.cpu.op_class::SimdSqrt                       0      0.00%     66.48% # Class of executed instruction
system.cpu.op_class::SimdFloatAdd                   0      0.00%     66.48% # Class of executed instruction
system.cpu.op_class::SimdFloatAlu                   0      0.00%     66.48% # Class of executed instruction
system.cpu.op_class::SimdFloatCmp                   0      0.00%     66.48% # Class of executed instruction
system.cpu.op_class::SimdFloatCvt                   0      0.00%     66.48% # Class of executed instruction
system.cpu.op_class::SimdFloatDiv                   0      0.00%     66.48% # Class of executed instruction
system.cpu.op_class::SimdFloatMisc                  0      0.00%     66.48% # Class of executed instruction
system.cpu.op_class::SimdFloatMult                  0      0.00%     66.48% # Class of executed instruction
system.cpu.op_class::SimdFloatMultAcc               0      0.00%     66.48% # Class of executed instruction
system.cpu.op_class::SimdFloatSqrt                  0      0.00%     66.48% # Class of executed instruction
system.cpu.op_class::MemRead                221285042     25.25%     91.73% # Class of executed instruction
system.cpu.op_class::MemWrite                72478557      8.27%    100.00% # Class of executed instruction
system.cpu.op_class::IprAccess                      0      0.00%    100.00% # Class of executed instruction
system.cpu.op_class::InstPrefetch                   0      0.00%    100.00% # Class of executed instruction
system.cpu.op_class::total                  876313783                       # Class of executed instruction
system.cpu.dcache.tags.replacements          14705898                       # number of replacements
system.cpu.dcache.tags.tagsinuse           511.960918                       # Cycle average of tags in use
system.cpu.dcache.tags.total_refs           279071317                       # Total number of references to valid blocks.
system.cpu.dcache.tags.sampled_refs          14706410                       # Sample count of references to valid blocks.
system.cpu.dcache.tags.avg_refs             18.976169                       # Average number of references to valid blocks.
system.cpu.dcache.tags.warmup_cycle         369734500                       # Cycle when the warmup percentage was hit.
system.cpu.dcache.tags.occ_blocks::cpu.data   511.960918                       # Average occupied blocks per requestor
system.cpu.dcache.tags.occ_percent::cpu.data     0.999924                       # Average percentage of cache occupancy
system.cpu.dcache.tags.occ_percent::total     0.999924                       # Average percentage of cache occupancy
system.cpu.dcache.tags.occ_task_id_blocks::1024          512                       # Occupied blocks per task id
system.cpu.dcache.tags.age_task_id_blocks_1024::0            6                       # Occupied blocks per task id
system.cpu.dcache.tags.age_task_id_blocks_1024::1          453                       # Occupied blocks per task id
system.cpu.dcache.tags.age_task_id_blocks_1024::2           51                       # Occupied blocks per task id
system.cpu.dcache.tags.age_task_id_blocks_1024::4            2                       # Occupied blocks per task id
system.cpu.dcache.tags.occ_task_id_percent::1024            1                       # Percentage of cache occupancy per task id
system.cpu.dcache.tags.tag_accesses        1189817318                       # Number of tag accesses
system.cpu.dcache.tags.data_accesses       1189817318                       # Number of data accesses
system.cpu.dcache.ReadReq_hits::cpu.data    207311572                       # number of ReadReq hits
system.cpu.dcache.ReadReq_hits::total       207311572                       # number of ReadReq hits
system.cpu.dcache.WriteReq_hits::cpu.data     71759745                       # number of WriteReq hits
system.cpu.dcache.WriteReq_hits::total       71759745                       # number of WriteReq hits
system.cpu.dcache.demand_hits::cpu.data     279071317                       # number of demand (read+write) hits
system.cpu.dcache.demand_hits::total        279071317                       # number of demand (read+write) hits
system.cpu.dcache.overall_hits::cpu.data    279071317                       # number of overall hits
system.cpu.dcache.overall_hits::total       279071317                       # number of overall hits
system.cpu.dcache.ReadReq_misses::cpu.data     13987597                       # number of ReadReq misses
system.cpu.dcache.ReadReq_misses::total      13987597                       # number of ReadReq misses
system.cpu.dcache.WriteReq_misses::cpu.data       718813                       # number of WriteReq misses
system.cpu.dcache.WriteReq_misses::total       718813                       # number of WriteReq misses
system.cpu.dcache.demand_misses::cpu.data     14706410                       # number of demand (read+write) misses
system.cpu.dcache.demand_misses::total       14706410                       # number of demand (read+write) misses
system.cpu.dcache.overall_misses::cpu.data     14706410                       # number of overall misses
system.cpu.dcache.overall_misses::total      14706410                       # number of overall misses
system.cpu.dcache.ReadReq_miss_latency::cpu.data 707190907500                       # number of ReadReq miss cycles
system.cpu.dcache.ReadReq_miss_latency::total 707190907500                       # number of ReadReq miss cycles
system.cpu.dcache.WriteReq_miss_latency::cpu.data  24574110500                       # number of WriteReq miss cycles
system.cpu.dcache.WriteReq_miss_latency::total  24574110500                       # number of WriteReq miss cycles
system.cpu.dcache.demand_miss_latency::cpu.data 731765018000                       # number of demand (read+write) miss cycles
system.cpu.dcache.demand_miss_latency::total 731765018000                       # number of demand (read+write) miss cycles
system.cpu.dcache.overall_miss_latency::cpu.data 731765018000                       # number of overall miss cycles
system.cpu.dcache.overall_miss_latency::total 731765018000                       # number of overall miss cycles
system.cpu.dcache.ReadReq_accesses::cpu.data    221299169                       # number of ReadReq accesses(hits+misses)
system.cpu.dcache.ReadReq_accesses::total    221299169                       # number of ReadReq accesses(hits+misses)
system.cpu.dcache.WriteReq_accesses::cpu.data     72478558                       # number of WriteReq accesses(hits+misses)
system.cpu.dcache.WriteReq_accesses::total     72478558                       # number of WriteReq accesses(hits+misses)
system.cpu.dcache.demand_accesses::cpu.data    293777727                       # number of demand (read+write) accesses
system.cpu.dcache.demand_accesses::total    293777727                       # number of demand (read+write) accesses
system.cpu.dcache.overall_accesses::cpu.data    293777727                       # number of overall (read+write) accesses
system.cpu.dcache.overall_accesses::total    293777727                       # number of overall (read+write) accesses
system.cpu.dcache.ReadReq_miss_rate::cpu.data     0.063207                       # miss rate for ReadReq accesses
system.cpu.dcache.ReadReq_miss_rate::total     0.063207                       # miss rate for ReadReq accesses
system.cpu.dcache.WriteReq_miss_rate::cpu.data     0.009918                       # miss rate for WriteReq accesses
system.cpu.dcache.WriteReq_miss_rate::total     0.009918                       # miss rate for WriteReq accesses
system.cpu.dcache.demand_miss_rate::cpu.data     0.050060                       # miss rate for demand accesses
system.cpu.dcache.demand_miss_rate::total     0.050060                       # miss rate for demand accesses
system.cpu.dcache.overall_miss_rate::cpu.data     0.050060                       # miss rate for overall accesses
system.cpu.dcache.overall_miss_rate::total     0.050060                       # miss rate for overall accesses
system.cpu.dcache.ReadReq_avg_miss_latency::cpu.data 50558.427405                       # average ReadReq miss latency
system.cpu.dcache.ReadReq_avg_miss_latency::total 50558.427405                       # average ReadReq miss latency
system.cpu.dcache.WriteReq_avg_miss_latency::cpu.data 34187.070212                       # average WriteReq miss latency
system.cpu.dcache.WriteReq_avg_miss_latency::total 34187.070212                       # average WriteReq miss latency
system.cpu.dcache.demand_avg_miss_latency::cpu.data 49758.235898                       # average overall miss latency
system.cpu.dcache.demand_avg_miss_latency::total 49758.235898                       # average overall miss latency
system.cpu.dcache.overall_avg_miss_latency::cpu.data 49758.235898                       # average overall miss latency
system.cpu.dcache.overall_avg_miss_latency::total 49758.235898                       # average overall miss latency
system.cpu.dcache.blocked_cycles::no_mshrs            0                       # number of cycles access was blocked
system.cpu.dcache.blocked_cycles::no_targets            0                       # number of cycles access was blocked
system.cpu.dcache.blocked::no_mshrs                 0                       # number of cycles access was blocked
system.cpu.dcache.blocked::no_targets               0                       # number of cycles access was blocked
system.cpu.dcache.avg_blocked_cycles::no_mshrs          nan                       # average number of cycles each access was blocked
system.cpu.dcache.avg_blocked_cycles::no_targets          nan                       # average number of cycles each access was blocked
system.cpu.dcache.fast_writes                       0                       # number of fast writes performed
system.cpu.dcache.cache_copies                      0                       # number of cache copies performed
system.cpu.dcache.writebacks::writebacks      4159348                       # number of writebacks
system.cpu.dcache.writebacks::total           4159348                       # number of writebacks
system.cpu.dcache.ReadReq_mshr_misses::cpu.data     13987597                       # number of ReadReq MSHR misses
system.cpu.dcache.ReadReq_mshr_misses::total     13987597                       # number of ReadReq MSHR misses
system.cpu.dcache.WriteReq_mshr_misses::cpu.data       718813                       # number of WriteReq MSHR misses
system.cpu.dcache.WriteReq_mshr_misses::total       718813                       # number of WriteReq MSHR misses
system.cpu.dcache.demand_mshr_misses::cpu.data     14706410                       # number of demand (read+write) MSHR misses
system.cpu.dcache.demand_mshr_misses::total     14706410                       # number of demand (read+write) MSHR misses
system.cpu.dcache.overall_mshr_misses::cpu.data     14706410                       # number of overall MSHR misses
system.cpu.dcache.overall_mshr_misses::total     14706410                       # number of overall MSHR misses
system.cpu.dcache.ReadReq_mshr_miss_latency::cpu.data 693203310500                       # number of ReadReq MSHR miss cycles
system.cpu.dcache.ReadReq_mshr_miss_latency::total 693203310500                       # number of ReadReq MSHR miss cycles
system.cpu.dcache.WriteReq_mshr_miss_latency::cpu.data  23855297500                       # number of WriteReq MSHR miss cycles
system.cpu.dcache.WriteReq_mshr_miss_latency::total  23855297500                       # number of WriteReq MSHR miss cycles
system.cpu.dcache.demand_mshr_miss_latency::cpu.data 717058608000                       # number of demand (read+write) MSHR miss cycles
system.cpu.dcache.demand_mshr_miss_latency::total 717058608000                       # number of demand (read+write) MSHR miss cycles
system.cpu.dcache.overall_mshr_miss_latency::cpu.data 717058608000                       # number of overall MSHR miss cycles
system.cpu.dcache.overall_mshr_miss_latency::total 717058608000                       # number of overall MSHR miss cycles
system.cpu.dcache.ReadReq_mshr_miss_rate::cpu.data     0.063207                       # mshr miss rate for ReadReq accesses
system.cpu.dcache.ReadReq_mshr_miss_rate::total     0.063207                       # mshr miss rate for ReadReq accesses
system.cpu.dcache.WriteReq_mshr_miss_rate::cpu.data     0.009918                       # mshr miss rate for WriteReq accesses
system.cpu.dcache.WriteReq_mshr_miss_rate::total     0.009918                       # mshr miss rate for WriteReq accesses
system.cpu.dcache.demand_mshr_miss_rate::cpu.data     0.050060                       # mshr miss rate for demand accesses
system.cpu.dcache.demand_mshr_miss_rate::total     0.050060                       # mshr miss rate for demand accesses
system.cpu.dcache.overall_mshr_miss_rate::cpu.data     0.050060                       # mshr miss rate for overall accesses
system.cpu.dcache.overall_mshr_miss_rate::total     0.050060                       # mshr miss rate for overall accesses
system.cpu.dcache.ReadReq_avg_mshr_miss_latency::cpu.data 49558.427405                       # average ReadReq mshr miss latency
system.cpu.dcache.ReadReq_avg_mshr_miss_latency::total 49558.427405                       # average ReadReq mshr miss latency
system.cpu.dcache.WriteReq_avg_mshr_miss_latency::cpu.data 33187.070212                       # average WriteReq mshr miss latency
system.cpu.dcache.WriteReq_avg_mshr_miss_latency::total 33187.070212                       # average WriteReq mshr miss latency
system.cpu.dcache.demand_avg_mshr_miss_latency::cpu.data 48758.235898                       # average overall mshr miss latency
system.cpu.dcache.demand_avg_mshr_miss_latency::total 48758.235898                       # average overall mshr miss latency
system.cpu.dcache.overall_avg_mshr_miss_latency::cpu.data 48758.235898                       # average overall mshr miss latency
system.cpu.dcache.overall_avg_mshr_miss_latency::total 48758.235898                       # average overall mshr miss latency
system.cpu.dcache.no_allocate_misses                0                       # Number of misses that were no-allocate
system.cpu.dtb_walker_cache.tags.replacements            0                       # number of replacements
system.cpu.dtb_walker_cache.tags.tagsinuse            0                       # Cycle average of tags in use
system.cpu.dtb_walker_cache.tags.total_refs            0                       # Total number of references to valid blocks.
system.cpu.dtb_walker_cache.tags.sampled_refs            0                       # Sample count of references to valid blocks.
system.cpu.dtb_walker_cache.tags.avg_refs          nan                       # Average number of references to valid blocks.
system.cpu.dtb_walker_cache.tags.warmup_cycle            0                       # Cycle when the warmup percentage was hit.
system.cpu.dtb_walker_cache.tags.tag_accesses            0                       # Number of tag accesses
system.cpu.dtb_walker_cache.tags.data_accesses            0                       # Number of data accesses
system.cpu.dtb_walker_cache.blocked_cycles::no_mshrs            0                       # number of cycles access was blocked
system.cpu.dtb_walker_cache.blocked_cycles::no_targets            0                       # number of cycles access was blocked
system.cpu.dtb_walker_cache.blocked::no_mshrs            0                       # number of cycles access was blocked
system.cpu.dtb_walker_cache.blocked::no_targets            0                       # number of cycles access was blocked
system.cpu.dtb_walker_cache.avg_blocked_cycles::no_mshrs          nan                       # average number of cycles each access was blocked
system.cpu.dtb_walker_cache.avg_blocked_cycles::no_targets          nan                       # average number of cycles each access was blocked
system.cpu.dtb_walker_cache.fast_writes             0                       # number of fast writes performed
system.cpu.dtb_walker_cache.cache_copies            0                       # number of cache copies performed
system.cpu.dtb_walker_cache.no_allocate_misses            0                       # Number of misses that were no-allocate
system.cpu.icache.tags.replacements                 8                       # number of replacements
system.cpu.icache.tags.tagsinuse           631.961138                       # Cycle average of tags in use
system.cpu.icache.tags.total_refs           677317270                       # Total number of references to valid blocks.
system.cpu.icache.tags.sampled_refs               676                       # Sample count of references to valid blocks.
system.cpu.icache.tags.avg_refs          1001948.624260                       # Average number of references to valid blocks.
system.cpu.icache.tags.warmup_cycle                 0                       # Cycle when the warmup percentage was hit.
system.cpu.icache.tags.occ_blocks::cpu.inst   631.961138                       # Average occupied blocks per requestor
system.cpu.icache.tags.occ_percent::cpu.inst     0.617150                       # Average percentage of cache occupancy
system.cpu.icache.tags.occ_percent::total     0.617150                       # Average percentage of cache occupancy
system.cpu.icache.tags.occ_task_id_blocks::1024          668                       # Occupied blocks per task id
system.cpu.icache.tags.age_task_id_blocks_1024::4          668                       # Occupied blocks per task id
system.cpu.icache.tags.occ_task_id_percent::1024     0.652344                       # Percentage of cache occupancy per task id
system.cpu.icache.tags.tag_accesses        5418544244                       # Number of tag accesses
system.cpu.icache.tags.data_accesses       5418544244                       # Number of data accesses
system.cpu.icache.ReadReq_hits::cpu.inst    677317270                       # number of ReadReq hits
system.cpu.icache.ReadReq_hits::total       677317270                       # number of ReadReq hits
system.cpu.icache.demand_hits::cpu.inst     677317270                       # number of demand (read+write) hits
system.cpu.icache.demand_hits::total        677317270                       # number of demand (read+write) hits
system.cpu.icache.overall_hits::cpu.inst    677317270                       # number of overall hits
system.cpu.icache.overall_hits::total       677317270                       # number of overall hits
system.cpu.icache.ReadReq_misses::cpu.inst          676                       # number of ReadReq misses
system.cpu.icache.ReadReq_misses::total           676                       # number of ReadReq misses
system.cpu.icache.demand_misses::cpu.inst          676                       # number of demand (read+write) misses
system.cpu.icache.demand_misses::total            676                       # number of demand (read+write) misses
system.cpu.icache.overall_misses::cpu.inst          676                       # number of overall misses
system.cpu.icache.overall_misses::total           676                       # number of overall misses
system.cpu.icache.ReadReq_miss_latency::cpu.inst     54074000                       # number of ReadReq miss cycles
system.cpu.icache.ReadReq_miss_latency::total     54074000                       # number of ReadReq miss cycles
system.cpu.icache.demand_miss_latency::cpu.inst     54074000                       # number of demand (read+write) miss cycles
system.cpu.icache.demand_miss_latency::total     54074000                       # number of demand (read+write) miss cycles
system.cpu.icache.overall_miss_latency::cpu.inst     54074000                       # number of overall miss cycles
system.cpu.icache.overall_miss_latency::total     54074000                       # number of overall miss cycles
system.cpu.icache.ReadReq_accesses::cpu.inst    677317946                       # number of ReadReq accesses(hits+misses)
system.cpu.icache.ReadReq_accesses::total    677317946                       # number of ReadReq accesses(hits+misses)
system.cpu.icache.demand_accesses::cpu.inst    677317946                       # number of demand (read+write) accesses
system.cpu.icache.demand_accesses::total    677317946                       # number of demand (read+write) accesses
system.cpu.icache.overall_accesses::cpu.inst    677317946                       # number of overall (read+write) accesses
system.cpu.icache.overall_accesses::total    677317946                       # number of overall (read+write) accesses
system.cpu.icache.ReadReq_miss_rate::cpu.inst     0.000001                       # miss rate for ReadReq accesses
system.cpu.icache.ReadReq_miss_rate::total     0.000001                       # miss rate for ReadReq accesses
system.cpu.icache.demand_miss_rate::cpu.inst     0.000001                       # miss rate for demand accesses
system.cpu.icache.demand_miss_rate::total     0.000001                       # miss rate for demand accesses
system.cpu.icache.overall_miss_rate::cpu.inst     0.000001                       # miss rate for overall accesses
system.cpu.icache.overall_miss_rate::total     0.000001                       # miss rate for overall accesses
system.cpu.icache.ReadReq_avg_miss_latency::cpu.inst 79991.124260                       # average ReadReq miss latency
system.cpu.icache.ReadReq_avg_miss_latency::total 79991.124260                       # average ReadReq miss latency
system.cpu.icache.demand_avg_miss_latency::cpu.inst 79991.124260                       # average overall miss latency
system.cpu.icache.demand_avg_miss_latency::total 79991.124260                       # average overall miss latency
system.cpu.icache.overall_avg_miss_latency::cpu.inst 79991.124260                       # average overall miss latency
system.cpu.icache.overall_avg_miss_latency::total 79991.124260                       # average overall miss latency
system.cpu.icache.blocked_cycles::no_mshrs            0                       # number of cycles access was blocked
system.cpu.icache.blocked_cycles::no_targets            0                       # number of cycles access was blocked
system.cpu.icache.blocked::no_mshrs                 0                       # number of cycles access was blocked
system.cpu.icache.blocked::no_targets               0                       # number of cycles access was blocked
system.cpu.icache.avg_blocked_cycles::no_mshrs          nan                       # average number of cycles each access was blocked
system.cpu.icache.avg_blocked_cycles::no_targets          nan                       # average number of cycles each access was blocked
system.cpu.icache.fast_writes                       0                       # number of fast writes performed
system.cpu.icache.cache_copies                      0                       # number of cache copies performed
system.cpu.icache.writebacks::writebacks            8                       # number of writebacks
system.cpu.icache.writebacks::total                 8                       # number of writebacks
system.cpu.icache.ReadReq_mshr_misses::cpu.inst          676                       # number of ReadReq MSHR misses
system.cpu.icache.ReadReq_mshr_misses::total          676                       # number of ReadReq MSHR misses
system.cpu.icache.demand_mshr_misses::cpu.inst          676                       # number of demand (read+write) MSHR misses
system.cpu.icache.demand_mshr_misses::total          676                       # number of demand (read+write) MSHR misses
system.cpu.icache.overall_mshr_misses::cpu.inst          676                       # number of overall MSHR misses
system.cpu.icache.overall_mshr_misses::total          676                       # number of overall MSHR misses
system.cpu.icache.ReadReq_mshr_miss_latency::cpu.inst     53398000                       # number of ReadReq MSHR miss cycles
system.cpu.icache.ReadReq_mshr_miss_latency::total     53398000                       # number of ReadReq MSHR miss cycles
system.cpu.icache.demand_mshr_miss_latency::cpu.inst     53398000                       # number of demand (read+write) MSHR miss cycles
system.cpu.icache.demand_mshr_miss_latency::total     53398000                       # number of demand (read+write) MSHR miss cycles
system.cpu.icache.overall_mshr_miss_latency::cpu.inst     53398000                       # number of overall MSHR miss cycles
system.cpu.icache.overall_mshr_miss_latency::total     53398000                       # number of overall MSHR miss cycles
system.cpu.icache.ReadReq_mshr_miss_rate::cpu.inst     0.000001                       # mshr miss rate for ReadReq accesses
system.cpu.icache.ReadReq_mshr_miss_rate::total     0.000001                       # mshr miss rate for ReadReq accesses
system.cpu.icache.demand_mshr_miss_rate::cpu.inst     0.000001                       # mshr miss rate for demand accesses
system.cpu.icache.demand_mshr_miss_rate::total     0.000001                       # mshr miss rate for demand accesses
system.cpu.icache.overall_mshr_miss_rate::cpu.inst     0.000001                       # mshr miss rate for overall accesses
system.cpu.icache.overall_mshr_miss_rate::total     0.000001                       # mshr miss rate for overall accesses
system.cpu.icache.ReadReq_avg_mshr_miss_latency::cpu.inst 78991.124260                       # average ReadReq mshr miss latency
system.cpu.icache.ReadReq_avg_mshr_miss_latency::total 78991.124260                       # average ReadReq mshr miss latency
system.cpu.icache.demand_avg_mshr_miss_latency::cpu.inst 78991.124260                       # average overall mshr miss latency
system.cpu.icache.demand_avg_mshr_miss_latency::total 78991.124260                       # average overall mshr miss latency
system.cpu.icache.overall_avg_mshr_miss_latency::cpu.inst 78991.124260                       # average overall mshr miss latency
system.cpu.icache.overall_avg_mshr_miss_latency::total 78991.124260                       # average overall mshr miss latency
system.cpu.icache.no_allocate_misses                0                       # Number of misses that were no-allocate
system.cpu.itb_walker_cache.tags.replacements            0                       # number of replacements
system.cpu.itb_walker_cache.tags.tagsinuse            0                       # Cycle average of tags in use
system.cpu.itb_walker_cache.tags.total_refs            0                       # Total number of references to valid blocks.
system.cpu.itb_walker_cache.tags.sampled_refs            0                       # Sample count of references to valid blocks.
system.cpu.itb_walker_cache.tags.avg_refs          nan                       # Average number of references to valid blocks.
system.cpu.itb_walker_cache.tags.warmup_cycle            0                       # Cycle when the warmup percentage was hit.
system.cpu.itb_walker_cache.tags.tag_accesses            0                       # Number of tag accesses
system.cpu.itb_walker_cache.tags.data_accesses            0                       # Number of data accesses
system.cpu.itb_walker_cache.blocked_cycles::no_mshrs            0                       # number of cycles access was blocked
system.cpu.itb_walker_cache.blocked_cycles::no_targets            0                       # number of cycles access was blocked
system.cpu.itb_walker_cache.blocked::no_mshrs            0                       # number of cycles access was blocked
system.cpu.itb_walker_cache.blocked::no_targets            0                       # number of cycles access was blocked
system.cpu.itb_walker_cache.avg_blocked_cycles::no_mshrs          nan                       # average number of cycles each access was blocked
system.cpu.itb_walker_cache.avg_blocked_cycles::no_targets          nan                       # average number of cycles each access was blocked
system.cpu.itb_walker_cache.fast_writes             0                       # number of fast writes performed
system.cpu.itb_walker_cache.cache_copies            0                       # number of cache copies performed
system.cpu.itb_walker_cache.no_allocate_misses            0                       # Number of misses that were no-allocate
system.l2.tags.replacements                   6723083                       # number of replacements
system.l2.tags.tagsinuse                 16245.029927                       # Cycle average of tags in use
system.l2.tags.total_refs                    21692282                       # Total number of references to valid blocks.
system.l2.tags.sampled_refs                   6739417                       # Sample count of references to valid blocks.
system.l2.tags.avg_refs                      3.218718                       # Average number of references to valid blocks.
system.l2.tags.warmup_cycle              330547680500                       # Cycle when the warmup percentage was hit.
system.l2.tags.occ_blocks::writebacks     3102.649798                       # Average occupied blocks per requestor
system.l2.tags.occ_blocks::cpu.inst          1.583585                       # Average occupied blocks per requestor
system.l2.tags.occ_blocks::cpu.data      13140.796544                       # Average occupied blocks per requestor
system.l2.tags.occ_percent::writebacks       0.189371                       # Average percentage of cache occupancy
system.l2.tags.occ_percent::cpu.inst         0.000097                       # Average percentage of cache occupancy
system.l2.tags.occ_percent::cpu.data         0.802051                       # Average percentage of cache occupancy
system.l2.tags.occ_percent::total            0.991518                       # Average percentage of cache occupancy
system.l2.tags.occ_task_id_blocks::1024         16334                       # Occupied blocks per task id
system.l2.tags.age_task_id_blocks_1024::1          414                       # Occupied blocks per task id
system.l2.tags.age_task_id_blocks_1024::2         3204                       # Occupied blocks per task id
system.l2.tags.age_task_id_blocks_1024::3         9599                       # Occupied blocks per task id
system.l2.tags.age_task_id_blocks_1024::4         3117                       # Occupied blocks per task id
system.l2.tags.occ_task_id_percent::1024     0.996948                       # Percentage of cache occupancy per task id
system.l2.tags.tag_accesses                  36871221                       # Number of tag accesses
system.l2.tags.data_accesses                 36871221                       # Number of data accesses
system.l2.WritebackDirty_hits::writebacks      4159348                       # number of WritebackDirty hits
system.l2.WritebackDirty_hits::total          4159348                       # number of WritebackDirty hits
system.l2.WritebackClean_hits::writebacks            8                       # number of WritebackClean hits
system.l2.WritebackClean_hits::total                8                       # number of WritebackClean hits
system.l2.ReadExReq_hits::cpu.data             498901                       # number of ReadExReq hits
system.l2.ReadExReq_hits::total                498901                       # number of ReadExReq hits
system.l2.ReadCleanReq_hits::cpu.inst               1                       # number of ReadCleanReq hits
system.l2.ReadCleanReq_hits::total                  1                       # number of ReadCleanReq hits
system.l2.ReadSharedReq_hits::cpu.data        7532142                       # number of ReadSharedReq hits
system.l2.ReadSharedReq_hits::total           7532142                       # number of ReadSharedReq hits
system.l2.demand_hits::cpu.inst                     1                       # number of demand (read+write) hits
system.l2.demand_hits::cpu.data               8031043                       # number of demand (read+write) hits
system.l2.demand_hits::total                  8031044                       # number of demand (read+write) hits
system.l2.overall_hits::cpu.inst                    1                       # number of overall hits
system.l2.overall_hits::cpu.data              8031043                       # number of overall hits
system.l2.overall_hits::total                 8031044                       # number of overall hits
system.l2.ReadExReq_misses::cpu.data           219912                       # number of ReadExReq misses
system.l2.ReadExReq_misses::total              219912                       # number of ReadExReq misses
system.l2.ReadCleanReq_misses::cpu.inst           675                       # number of ReadCleanReq misses
system.l2.ReadCleanReq_misses::total              675                       # number of ReadCleanReq misses
system.l2.ReadSharedReq_misses::cpu.data      6455455                       # number of ReadSharedReq misses
system.l2.ReadSharedReq_misses::total         6455455                       # number of ReadSharedReq misses
system.l2.demand_misses::cpu.inst                 675                       # number of demand (read+write) misses
system.l2.demand_misses::cpu.data             6675367                       # number of demand (read+write) misses
system.l2.demand_misses::total                6676042                       # number of demand (read+write) misses
system.l2.overall_misses::cpu.inst                675                       # number of overall misses
system.l2.overall_misses::cpu.data            6675367                       # number of overall misses
system.l2.overall_misses::total               6676042                       # number of overall misses
system.l2.ReadExReq_miss_latency::cpu.data  17538617000                       # number of ReadExReq miss cycles
system.l2.ReadExReq_miss_latency::total   17538617000                       # number of ReadExReq miss cycles
system.l2.ReadCleanReq_miss_latency::cpu.inst     52371000                       # number of ReadCleanReq miss cycles
system.l2.ReadCleanReq_miss_latency::total     52371000                       # number of ReadCleanReq miss cycles
system.l2.ReadSharedReq_miss_latency::cpu.data 593134424000                       # number of ReadSharedReq miss cycles
system.l2.ReadSharedReq_miss_latency::total 593134424000                       # number of ReadSharedReq miss cycles
system.l2.demand_miss_latency::cpu.inst      52371000                       # number of demand (read+write) miss cycles
system.l2.demand_miss_latency::cpu.data  610673041000                       # number of demand (read+write) miss cycles
system.l2.demand_miss_latency::total     610725412000                       # number of demand (read+write) miss cycles
system.l2.overall_miss_latency::cpu.inst     52371000                       # number of overall miss cycles
system.l2.overall_miss_latency::cpu.data 610673041000                       # number of overall miss cycles
system.l2.overall_miss_latency::total    610725412000                       # number of overall miss cycles
system.l2.WritebackDirty_accesses::writebacks      4159348                       # number of WritebackDirty accesses(hits+misses)
system.l2.WritebackDirty_accesses::total      4159348                       # number of WritebackDirty accesses(hits+misses)
system.l2.WritebackClean_accesses::writebacks            8                       # number of WritebackClean accesses(hits+misses)
system.l2.WritebackClean_accesses::total            8                       # number of WritebackClean accesses(hits+misses)
system.l2.ReadExReq_accesses::cpu.data         718813                       # number of ReadExReq accesses(hits+misses)
system.l2.ReadExReq_accesses::total            718813                       # number of ReadExReq accesses(hits+misses)
system.l2.ReadCleanReq_accesses::cpu.inst          676                       # number of ReadCleanReq accesses(hits+misses)
system.l2.ReadCleanReq_accesses::total            676                       # number of ReadCleanReq accesses(hits+misses)
system.l2.ReadSharedReq_accesses::cpu.data     13987597                       # number of ReadSharedReq accesses(hits+misses)
system.l2.ReadSharedReq_accesses::total      13987597                       # number of ReadSharedReq accesses(hits+misses)
system.l2.demand_accesses::cpu.inst               676                       # number of demand (read+write) accesses
system.l2.demand_accesses::cpu.data          14706410                       # number of demand (read+write) accesses
system.l2.demand_accesses::total             14707086                       # number of demand (read+write) accesses
system.l2.overall_accesses::cpu.inst              676                       # number of overall (read+write) accesses
system.l2.overall_accesses::cpu.data         14706410                       # number of overall (read+write) accesses
system.l2.overall_accesses::total            14707086                       # number of overall (read+write) accesses
system.l2.ReadExReq_miss_rate::cpu.data      0.305938                       # miss rate for ReadExReq accesses
system.l2.ReadExReq_miss_rate::total         0.305938                       # miss rate for ReadExReq accesses
system.l2.ReadCleanReq_miss_rate::cpu.inst     0.998521                       # miss rate for ReadCleanReq accesses
system.l2.ReadCleanReq_miss_rate::total      0.998521                       # miss rate for ReadCleanReq accesses
system.l2.ReadSharedReq_miss_rate::cpu.data     0.461513                       # miss rate for ReadSharedReq accesses
system.l2.ReadSharedReq_miss_rate::total     0.461513                       # miss rate for ReadSharedReq accesses
system.l2.demand_miss_rate::cpu.inst         0.998521                       # miss rate for demand accesses
system.l2.demand_miss_rate::cpu.data         0.453909                       # miss rate for demand accesses
system.l2.demand_miss_rate::total            0.453934                       # miss rate for demand accesses
system.l2.overall_miss_rate::cpu.inst        0.998521                       # miss rate for overall accesses
system.l2.overall_miss_rate::cpu.data        0.453909                       # miss rate for overall accesses
system.l2.overall_miss_rate::total           0.453934                       # miss rate for overall accesses
system.l2.ReadExReq_avg_miss_latency::cpu.data 79752.887519                       # average ReadExReq miss latency
system.l2.ReadExReq_avg_miss_latency::total 79752.887519                       # average ReadExReq miss latency
system.l2.ReadCleanReq_avg_miss_latency::cpu.inst 77586.666667                       # average ReadCleanReq miss latency
system.l2.ReadCleanReq_avg_miss_latency::total 77586.666667                       # average ReadCleanReq miss latency
system.l2.ReadSharedReq_avg_miss_latency::cpu.data 91881.118217                       # average ReadSharedReq miss latency
system.l2.ReadSharedReq_avg_miss_latency::total 91881.118217                       # average ReadSharedReq miss latency
system.l2.demand_avg_miss_latency::cpu.inst 77586.666667                       # average overall miss latency
system.l2.demand_avg_miss_latency::cpu.data 91481.568130                       # average overall miss latency
system.l2.demand_avg_miss_latency::total 91480.163246                       # average overall miss latency
system.l2.overall_avg_miss_latency::cpu.inst 77586.666667                       # average overall miss latency
system.l2.overall_avg_miss_latency::cpu.data 91481.568130                       # average overall miss latency
system.l2.overall_avg_miss_latency::total 91480.163246                       # average overall miss latency
system.l2.blocked_cycles::no_mshrs                  0                       # number of cycles access was blocked
system.l2.blocked_cycles::no_targets                0                       # number of cycles access was blocked
system.l2.blocked::no_mshrs                         0                       # number of cycles access was blocked
system.l2.blocked::no_targets                       0                       # number of cycles access was blocked
system.l2.avg_blocked_cycles::no_mshrs            nan                       # average number of cycles each access was blocked
system.l2.avg_blocked_cycles::no_targets          nan                       # average number of cycles each access was blocked
system.l2.fast_writes                               0                       # number of fast writes performed
system.l2.cache_copies                              0                       # number of cache copies performed
system.l2.writebacks::writebacks              1155655                       # number of writebacks
system.l2.writebacks::total                   1155655                       # number of writebacks
system.l2.CleanEvict_mshr_misses::writebacks       261513                       # number of CleanEvict MSHR misses
system.l2.CleanEvict_mshr_misses::total        261513                       # number of CleanEvict MSHR misses
system.l2.ReadExReq_mshr_misses::cpu.data       219912                       # number of ReadExReq MSHR misses
system.l2.ReadExReq_mshr_misses::total         219912                       # number of ReadExReq MSHR misses
system.l2.ReadCleanReq_mshr_misses::cpu.inst          675                       # number of ReadCleanReq MSHR misses
system.l2.ReadCleanReq_mshr_misses::total          675                       # number of ReadCleanReq MSHR misses
system.l2.ReadSharedReq_mshr_misses::cpu.data      6455455                       # number of ReadSharedReq MSHR misses
system.l2.ReadSharedReq_mshr_misses::total      6455455                       # number of ReadSharedReq MSHR misses
system.l2.demand_mshr_misses::cpu.inst            675                       # number of demand (read+write) MSHR misses
system.l2.demand_mshr_misses::cpu.data        6675367                       # number of demand (read+write) MSHR misses
system.l2.demand_mshr_misses::total           6676042                       # number of demand (read+write) MSHR misses
system.l2.overall_mshr_misses::cpu.inst           675                       # number of overall MSHR misses
system.l2.overall_mshr_misses::cpu.data       6675367                       # number of overall MSHR misses
system.l2.overall_mshr_misses::total          6676042                       # number of overall MSHR misses
system.l2.ReadExReq_mshr_miss_latency::cpu.data  15339497000                       # number of ReadExReq MSHR miss cycles
system.l2.ReadExReq_mshr_miss_latency::total  15339497000                       # number of ReadExReq MSHR miss cycles
system.l2.ReadCleanReq_mshr_miss_latency::cpu.inst     45621000                       # number of ReadCleanReq MSHR miss cycles
system.l2.ReadCleanReq_mshr_miss_latency::total     45621000                       # number of ReadCleanReq MSHR miss cycles
system.l2.ReadSharedReq_mshr_miss_latency::cpu.data 528579874000                       # number of ReadSharedReq MSHR miss cycles
system.l2.ReadSharedReq_mshr_miss_latency::total 528579874000                       # number of ReadSharedReq MSHR miss cycles
system.l2.demand_mshr_miss_latency::cpu.inst     45621000                       # number of demand (read+write) MSHR miss cycles
system.l2.demand_mshr_miss_latency::cpu.data 543919371000                       # number of demand (read+write) MSHR miss cycles
system.l2.demand_mshr_miss_latency::total 543964992000                       # number of demand (read+write) MSHR miss cycles
system.l2.overall_mshr_miss_latency::cpu.inst     45621000                       # number of overall MSHR miss cycles
system.l2.overall_mshr_miss_latency::cpu.data 543919371000                       # number of overall MSHR miss cycles
system.l2.overall_mshr_miss_latency::total 543964992000                       # number of overall MSHR miss cycles
system.l2.CleanEvict_mshr_miss_rate::writebacks          inf                       # mshr miss rate for CleanEvict accesses
system.l2.CleanEvict_mshr_miss_rate::total          inf                       # mshr miss rate for CleanEvict accesses
system.l2.ReadExReq_mshr_miss_rate::cpu.data     0.305938                       # mshr miss rate for ReadExReq accesses
system.l2.ReadExReq_mshr_miss_rate::total     0.305938                       # mshr miss rate for ReadExReq accesses
system.l2.ReadCleanReq_mshr_miss_rate::cpu.inst     0.998521                       # mshr miss rate for ReadCleanReq accesses
system.l2.ReadCleanReq_mshr_miss_rate::total     0.998521                       # mshr miss rate for ReadCleanReq accesses
system.l2.ReadSharedReq_mshr_miss_rate::cpu.data     0.461513                       # mshr miss rate for ReadSharedReq accesses
system.l2.ReadSharedReq_mshr_miss_rate::total     0.461513                       # mshr miss rate for ReadSharedReq accesses
system.l2.demand_mshr_miss_rate::cpu.inst     0.998521                       # mshr miss rate for demand accesses
system.l2.demand_mshr_miss_rate::cpu.data     0.453909                       # mshr miss rate for demand accesses
system.l2.demand_mshr_miss_rate::total       0.453934                       # mshr miss rate for demand accesses
system.l2.overall_mshr_miss_rate::cpu.inst     0.998521                       # mshr miss rate for overall accesses
system.l2.overall_mshr_miss_rate::cpu.data     0.453909                       # mshr miss rate for overall accesses
system.l2.overall_mshr_miss_rate::total      0.453934                       # mshr miss rate for overall accesses
system.l2.ReadExReq_avg_mshr_miss_latency::cpu.data 69752.887519                       # average ReadExReq mshr miss latency
system.l2.ReadExReq_avg_mshr_miss_latency::total 69752.887519                       # average ReadExReq mshr miss latency
system.l2.ReadCleanReq_avg_mshr_miss_latency::cpu.inst 67586.666667                       # average ReadCleanReq mshr miss latency
system.l2.ReadCleanReq_avg_mshr_miss_latency::total 67586.666667                       # average ReadCleanReq mshr miss latency
system.l2.ReadSharedReq_avg_mshr_miss_latency::cpu.data 81881.118217                       # average ReadSharedReq mshr miss latency
system.l2.ReadSharedReq_avg_mshr_miss_latency::total 81881.118217                       # average ReadSharedReq mshr miss latency
system.l2.demand_avg_mshr_miss_latency::cpu.inst 67586.666667                       # average overall mshr miss latency
system.l2.demand_avg_mshr_miss_latency::cpu.data 81481.568130                       # average overall mshr miss latency
system.l2.demand_avg_mshr_miss_latency::total 81480.163246                       # average overall mshr miss latency
system.l2.overall_avg_mshr_miss_latency::cpu.inst 67586.666667                       # average overall mshr miss latency
system.l2.overall_avg_mshr_miss_latency::cpu.data 81481.568130                       # average overall mshr miss latency
system.l2.overall_avg_mshr_miss_latency::total 81480.163246                       # average overall mshr miss latency
system.l2.no_allocate_misses                        0                       # Number of misses that were no-allocate
system.membus.trans_dist::ReadResp            6456130                       # Transaction distribution
system.membus.trans_dist::WritebackDirty      1155655                       # Transaction distribution
system.membus.trans_dist::CleanEvict          5503331                       # Transaction distribution
system.membus.trans_dist::ReadExReq            219912                       # Transaction distribution
system.membus.trans_dist::ReadExResp           219912                       # Transaction distribution
system.membus.trans_dist::ReadSharedReq       6456130                       # Transaction distribution
system.membus.pkt_count_system.l2.mem_side::system.mem_ctrls.port     20011070                       # Packet count per connected master and slave (bytes)
system.membus.pkt_count_system.l2.mem_side::total     20011070                       # Packet count per connected master and slave (bytes)
system.membus.pkt_count::total               20011070                       # Packet count per connected master and slave (bytes)
system.membus.pkt_size_system.l2.mem_side::system.mem_ctrls.port    501228608                       # Cumulative packet size per connected master and slave (bytes)
system.membus.pkt_size_system.l2.mem_side::total    501228608                       # Cumulative packet size per connected master and slave (bytes)
system.membus.pkt_size::total               501228608                       # Cumulative packet size per connected master and slave (bytes)
system.membus.snoops                                0                       # Total snoops (count)
system.membus.snoop_fanout::samples          13335028                       # Request fanout histogram
system.membus.snoop_fanout::mean                    0                       # Request fanout histogram
system.membus.snoop_fanout::stdev                   0                       # Request fanout histogram
system.membus.snoop_fanout::underflows              0      0.00%      0.00% # Request fanout histogram
system.membus.snoop_fanout::0                13335028    100.00%    100.00% # Request fanout histogram
system.membus.snoop_fanout::1                       0      0.00%    100.00% # Request fanout histogram
system.membus.snoop_fanout::overflows               0      0.00%    100.00% # Request fanout histogram
system.membus.snoop_fanout::min_value               0                       # Request fanout histogram
system.membus.snoop_fanout::max_value               0                       # Request fanout histogram
system.membus.snoop_fanout::total            13335028                       # Request fanout histogram
system.membus.reqLayer2.occupancy         17964714000                       # Layer occupancy (ticks)
system.membus.reqLayer2.utilization               1.1                       # Layer utilization (%)
system.membus.respLayer1.occupancy        37232837250                       # Layer occupancy (ticks)
system.membus.respLayer1.utilization              2.2                       # Layer utilization (%)
system.tol2bus.snoop_filter.tot_requests     29412992                       # Total number of requests made to the snoop filter.
system.tol2bus.snoop_filter.hit_single_requests     14705906                       # Number of requests hitting in the snoop filter with a single holder of the requested data.
system.tol2bus.snoop_filter.hit_multi_requests            1                       # Number of requests hitting in the snoop filter with multiple (>1) holders of the requested data.
system.tol2bus.snoop_filter.tot_snoops         325610                       # Total number of snoops made to the snoop filter.
system.tol2bus.snoop_filter.hit_single_snoops       325610                       # Number of snoops hitting in the snoop filter with a single holder of the requested data.
system.tol2bus.snoop_filter.hit_multi_snoops            0                       # Number of snoops hitting in the snoop filter with multiple (>1) holders of the requested data.
system.tol2bus.trans_dist::ReadResp          13988273                       # Transaction distribution
system.tol2bus.trans_dist::WritebackDirty      5315003                       # Transaction distribution
system.tol2bus.trans_dist::WritebackClean            8                       # Transaction distribution
system.tol2bus.trans_dist::CleanEvict        16113977                       # Transaction distribution
system.tol2bus.trans_dist::ReadExReq           718813                       # Transaction distribution
system.tol2bus.trans_dist::ReadExResp          718813                       # Transaction distribution
system.tol2bus.trans_dist::ReadCleanReq           676                       # Transaction distribution
system.tol2bus.trans_dist::ReadSharedReq     13987597                       # Transaction distribution
system.tol2bus.pkt_count_system.cpu.icache.mem_side::system.l2.cpu_side         1360                       # Packet count per connected master and slave (bytes)
system.tol2bus.pkt_count_system.cpu.dcache.mem_side::system.l2.cpu_side     44118717                       # Packet count per connected master and slave (bytes)
system.tol2bus.pkt_count::total              44120077                       # Packet count per connected master and slave (bytes)
system.tol2bus.pkt_size_system.cpu.icache.mem_side::system.l2.cpu_side        43776                       # Cumulative packet size per connected master and slave (bytes)
system.tol2bus.pkt_size_system.cpu.dcache.mem_side::system.l2.cpu_side   1207408512                       # Cumulative packet size per connected master and slave (bytes)
system.tol2bus.pkt_size::total             1207452288                       # Cumulative packet size per connected master and slave (bytes)
system.tol2bus.snoops                         6723083                       # Total snoops (count)
system.tol2bus.snoop_fanout::samples         21430169                       # Request fanout histogram
system.tol2bus.snoop_fanout::mean            0.015194                       # Request fanout histogram
system.tol2bus.snoop_fanout::stdev           0.122324                       # Request fanout histogram
system.tol2bus.snoop_fanout::underflows             0      0.00%      0.00% # Request fanout histogram
system.tol2bus.snoop_fanout::0               21104558     98.48%     98.48% # Request fanout histogram
system.tol2bus.snoop_fanout::1                 325611      1.52%    100.00% # Request fanout histogram
system.tol2bus.snoop_fanout::2                      0      0.00%    100.00% # Request fanout histogram
system.tol2bus.snoop_fanout::3                      0      0.00%    100.00% # Request fanout histogram
system.tol2bus.snoop_fanout::4                      0      0.00%    100.00% # Request fanout histogram
system.tol2bus.snoop_fanout::overflows              0      0.00%    100.00% # Request fanout histogram
system.tol2bus.snoop_fanout::min_value              0                       # Request fanout histogram
system.tol2bus.snoop_fanout::max_value              1                       # Request fanout histogram
system.tol2bus.snoop_fanout::total           21430169                       # Request fanout histogram
system.tol2bus.reqLayer0.occupancy        18865852000                       # Layer occupancy (ticks)
system.tol2bus.reqLayer0.utilization              1.1                       # Layer utilization (%)
system.tol2bus.respLayer0.occupancy           1014000                       # Layer occupancy (ticks)
system.tol2bus.respLayer0.utilization             0.0                       # Layer utilization (%)
system.tol2bus.respLayer1.occupancy       22059615000                       # Layer occupancy (ticks)
system.tol2bus.respLayer1.utilization             1.3                       # Layer utilization (%)

---------- End Simulation Statistics   ----------
