
---------- Begin Simulation Statistics ----------
sim_seconds                                  1.687525                       # Number of seconds simulated
sim_ticks                                1687525015500                       # Number of ticks simulated
final_tick                               1687525015500                       # Number of ticks from beginning of simulation (restored from checkpoints and never reset)
sim_freq                                 1000000000000                       # Frequency of simulated ticks
host_inst_rate                                 353879                       # Simulator instruction rate (inst/s)
host_op_rate                                   620218                       # Simulator op (including micro ops) rate (op/s)
host_tick_rate                             1194358826                       # Simulator tick rate (ticks/s)
host_mem_usage                                 821560                       # Number of bytes of host memory used
host_seconds                                  1412.91                       # Real time elapsed on the host
sim_insts                                   500000000                       # Number of instructions simulated
sim_ops                                     876313783                       # Number of ops (including micro ops) simulated
system.voltage_domain.voltage                       1                       # Voltage in Volts
system.clk_domain.clock                          1000                       # Clock period in ticks
system.mem_ctrls.bytes_read::cpu.inst           45120                       # Number of bytes read from this memory
system.mem_ctrls.bytes_read::cpu.data       427030464                       # Number of bytes read from this memory
system.mem_ctrls.bytes_read::total          427075584                       # Number of bytes read from this memory
system.mem_ctrls.bytes_inst_read::cpu.inst        45120                       # Number of instructions bytes read from this memory
system.mem_ctrls.bytes_inst_read::total         45120                       # Number of instructions bytes read from this memory
system.mem_ctrls.bytes_written::writebacks     73777216                       # Number of bytes written to this memory
system.mem_ctrls.bytes_written::total        73777216                       # Number of bytes written to this memory
system.mem_ctrls.num_reads::cpu.inst              705                       # Number of read requests responded to by this memory
system.mem_ctrls.num_reads::cpu.data          6672351                       # Number of read requests responded to by this memory
system.mem_ctrls.num_reads::total             6673056                       # Number of read requests responded to by this memory
system.mem_ctrls.num_writes::writebacks       1152769                       # Number of write requests responded to by this memory
system.mem_ctrls.num_writes::total            1152769                       # Number of write requests responded to by this memory
system.mem_ctrls.bw_read::cpu.inst              26737                       # Total read bandwidth from this memory (bytes/s)
system.mem_ctrls.bw_read::cpu.data          253051339                       # Total read bandwidth from this memory (bytes/s)
system.mem_ctrls.bw_read::total             253078076                       # Total read bandwidth from this memory (bytes/s)
system.mem_ctrls.bw_inst_read::cpu.inst         26737                       # Instruction read bandwidth from this memory (bytes/s)
system.mem_ctrls.bw_inst_read::total            26737                       # Instruction read bandwidth from this memory (bytes/s)
system.mem_ctrls.bw_write::writebacks        43719184                       # Write bandwidth from this memory (bytes/s)
system.mem_ctrls.bw_write::total             43719184                       # Write bandwidth from this memory (bytes/s)
system.mem_ctrls.bw_total::writebacks        43719184                       # Total bandwidth to/from this memory (bytes/s)
system.mem_ctrls.bw_total::cpu.inst             26737                       # Total bandwidth to/from this memory (bytes/s)
system.mem_ctrls.bw_total::cpu.data         253051339                       # Total bandwidth to/from this memory (bytes/s)
system.mem_ctrls.bw_total::total            296797260                       # Total bandwidth to/from this memory (bytes/s)
system.mem_ctrls.readReqs                     6673056                       # Number of read requests accepted
system.mem_ctrls.writeReqs                    1152769                       # Number of write requests accepted
system.mem_ctrls.readBursts                   6673056                       # Number of DRAM read bursts, including those serviced by the write queue
system.mem_ctrls.writeBursts                  1152769                       # Number of DRAM write bursts, including those merged in the write queue
system.mem_ctrls.bytesReadDRAM              425396352                       # Total number of bytes read from DRAM
system.mem_ctrls.bytesReadWrQ                 1679232                       # Total number of bytes read from write queue
system.mem_ctrls.bytesWritten                73758976                       # Total number of bytes written to DRAM
system.mem_ctrls.bytesReadSys               427075584                       # Total read bytes from the system interface side
system.mem_ctrls.bytesWrittenSys             73777216                       # Total written bytes from the system interface side
system.mem_ctrls.servicedByWrQ                  26238                       # Number of DRAM read bursts serviced by the write queue
system.mem_ctrls.mergedWrBursts                   265                       # Number of DRAM write bursts merged with an existing one
system.mem_ctrls.neitherReadNorWriteReqs      5503385                       # Number of requests that are neither read nor write
system.mem_ctrls.perBankRdBursts::0            427127                       # Per bank write bursts
system.mem_ctrls.perBankRdBursts::1            408983                       # Per bank write bursts
system.mem_ctrls.perBankRdBursts::2            409962                       # Per bank write bursts
system.mem_ctrls.perBankRdBursts::3            438685                       # Per bank write bursts
system.mem_ctrls.perBankRdBursts::4            406843                       # Per bank write bursts
system.mem_ctrls.perBankRdBursts::5            405373                       # Per bank write bursts
system.mem_ctrls.perBankRdBursts::6            420601                       # Per bank write bursts
system.mem_ctrls.perBankRdBursts::7            403010                       # Per bank write bursts
system.mem_ctrls.perBankRdBursts::8            406707                       # Per bank write bursts
system.mem_ctrls.perBankRdBursts::9            406172                       # Per bank write bursts
system.mem_ctrls.perBankRdBursts::10           407975                       # Per bank write bursts
system.mem_ctrls.perBankRdBursts::11           411728                       # Per bank write bursts
system.mem_ctrls.perBankRdBursts::12           423391                       # Per bank write bursts
system.mem_ctrls.perBankRdBursts::13           426457                       # Per bank write bursts
system.mem_ctrls.perBankRdBursts::14           420234                       # Per bank write bursts
system.mem_ctrls.perBankRdBursts::15           423570                       # Per bank write bursts
system.mem_ctrls.perBankWrBursts::0             73092                       # Per bank write bursts
system.mem_ctrls.perBankWrBursts::1             72547                       # Per bank write bursts
system.mem_ctrls.perBankWrBursts::2             72387                       # Per bank write bursts
system.mem_ctrls.perBankWrBursts::3             84208                       # Per bank write bursts
system.mem_ctrls.perBankWrBursts::4             74151                       # Per bank write bursts
system.mem_ctrls.perBankWrBursts::5             67698                       # Per bank write bursts
system.mem_ctrls.perBankWrBursts::6             76006                       # Per bank write bursts
system.mem_ctrls.perBankWrBursts::7             67161                       # Per bank write bursts
system.mem_ctrls.perBankWrBursts::8             68088                       # Per bank write bursts
system.mem_ctrls.perBankWrBursts::9             66955                       # Per bank write bursts
system.mem_ctrls.perBankWrBursts::10            67470                       # Per bank write bursts
system.mem_ctrls.perBankWrBursts::11            70805                       # Per bank write bursts
system.mem_ctrls.perBankWrBursts::12            73166                       # Per bank write bursts
system.mem_ctrls.perBankWrBursts::13            73305                       # Per bank write bursts
system.mem_ctrls.perBankWrBursts::14            72664                       # Per bank write bursts
system.mem_ctrls.perBankWrBursts::15            72781                       # Per bank write bursts
system.mem_ctrls.numRdRetry                         0                       # Number of times read queue was full causing retry
system.mem_ctrls.numWrRetry                         0                       # Number of times write queue was full causing retry
system.mem_ctrls.totGap                  1687524714500                       # Total gap between requests
system.mem_ctrls.readPktSize::0                     0                       # Read request sizes (log2)
system.mem_ctrls.readPktSize::1                     0                       # Read request sizes (log2)
system.mem_ctrls.readPktSize::2                     0                       # Read request sizes (log2)
system.mem_ctrls.readPktSize::3                     0                       # Read request sizes (log2)
system.mem_ctrls.readPktSize::4                     0                       # Read request sizes (log2)
system.mem_ctrls.readPktSize::5                     0                       # Read request sizes (log2)
system.mem_ctrls.readPktSize::6               6673056                       # Read request sizes (log2)
system.mem_ctrls.writePktSize::0                    0                       # Write request sizes (log2)
system.mem_ctrls.writePktSize::1                    0                       # Write request sizes (log2)
system.mem_ctrls.writePktSize::2                    0                       # Write request sizes (log2)
system.mem_ctrls.writePktSize::3                    0                       # Write request sizes (log2)
system.mem_ctrls.writePktSize::4                    0                       # Write request sizes (log2)
system.mem_ctrls.writePktSize::5                    0                       # Write request sizes (log2)
system.mem_ctrls.writePktSize::6              1152769                       # Write request sizes (log2)
system.mem_ctrls.rdQLenPdf::0                 6646818                       # What read queue length does an incoming req see
system.mem_ctrls.rdQLenPdf::1                       0                       # What read queue length does an incoming req see
system.mem_ctrls.rdQLenPdf::2                       0                       # What read queue length does an incoming req see
system.mem_ctrls.rdQLenPdf::3                       0                       # What read queue length does an incoming req see
system.mem_ctrls.rdQLenPdf::4                       0                       # What read queue length does an incoming req see
system.mem_ctrls.rdQLenPdf::5                       0                       # What read queue length does an incoming req see
system.mem_ctrls.rdQLenPdf::6                       0                       # What read queue length does an incoming req see
system.mem_ctrls.rdQLenPdf::7                       0                       # What read queue length does an incoming req see
system.mem_ctrls.rdQLenPdf::8                       0                       # What read queue length does an incoming req see
system.mem_ctrls.rdQLenPdf::9                       0                       # What read queue length does an incoming req see
system.mem_ctrls.rdQLenPdf::10                      0                       # What read queue length does an incoming req see
system.mem_ctrls.rdQLenPdf::11                      0                       # What read queue length does an incoming req see
system.mem_ctrls.rdQLenPdf::12                      0                       # What read queue length does an incoming req see
system.mem_ctrls.rdQLenPdf::13                      0                       # What read queue length does an incoming req see
system.mem_ctrls.rdQLenPdf::14                      0                       # What read queue length does an incoming req see
system.mem_ctrls.rdQLenPdf::15                      0                       # What read queue length does an incoming req see
system.mem_ctrls.rdQLenPdf::16                      0                       # What read queue length does an incoming req see
system.mem_ctrls.rdQLenPdf::17                      0                       # What read queue length does an incoming req see
system.mem_ctrls.rdQLenPdf::18                      0                       # What read queue length does an incoming req see
system.mem_ctrls.rdQLenPdf::19                      0                       # What read queue length does an incoming req see
system.mem_ctrls.rdQLenPdf::20                      0                       # What read queue length does an incoming req see
system.mem_ctrls.rdQLenPdf::21                      0                       # What read queue length does an incoming req see
system.mem_ctrls.rdQLenPdf::22                      0                       # What read queue length does an incoming req see
system.mem_ctrls.rdQLenPdf::23                      0                       # What read queue length does an incoming req see
system.mem_ctrls.rdQLenPdf::24                      0                       # What read queue length does an incoming req see
system.mem_ctrls.rdQLenPdf::25                      0                       # What read queue length does an incoming req see
system.mem_ctrls.rdQLenPdf::26                      0                       # What read queue length does an incoming req see
system.mem_ctrls.rdQLenPdf::27                      0                       # What read queue length does an incoming req see
system.mem_ctrls.rdQLenPdf::28                      0                       # What read queue length does an incoming req see
system.mem_ctrls.rdQLenPdf::29                      0                       # What read queue length does an incoming req see
system.mem_ctrls.rdQLenPdf::30                      0                       # What read queue length does an incoming req see
system.mem_ctrls.rdQLenPdf::31                      0                       # What read queue length does an incoming req see
system.mem_ctrls.wrQLenPdf::0                       1                       # What write queue length does an incoming req see
system.mem_ctrls.wrQLenPdf::1                       1                       # What write queue length does an incoming req see
system.mem_ctrls.wrQLenPdf::2                       1                       # What write queue length does an incoming req see
system.mem_ctrls.wrQLenPdf::3                       1                       # What write queue length does an incoming req see
system.mem_ctrls.wrQLenPdf::4                       1                       # What write queue length does an incoming req see
system.mem_ctrls.wrQLenPdf::5                       1                       # What write queue length does an incoming req see
system.mem_ctrls.wrQLenPdf::6                       1                       # What write queue length does an incoming req see
system.mem_ctrls.wrQLenPdf::7                       1                       # What write queue length does an incoming req see
system.mem_ctrls.wrQLenPdf::8                       1                       # What write queue length does an incoming req see
system.mem_ctrls.wrQLenPdf::9                       1                       # What write queue length does an incoming req see
system.mem_ctrls.wrQLenPdf::10                      1                       # What write queue length does an incoming req see
system.mem_ctrls.wrQLenPdf::11                      1                       # What write queue length does an incoming req see
system.mem_ctrls.wrQLenPdf::12                      1                       # What write queue length does an incoming req see
system.mem_ctrls.wrQLenPdf::13                      1                       # What write queue length does an incoming req see
system.mem_ctrls.wrQLenPdf::14                      1                       # What write queue length does an incoming req see
system.mem_ctrls.wrQLenPdf::15                  35167                       # What write queue length does an incoming req see
system.mem_ctrls.wrQLenPdf::16                  36005                       # What write queue length does an incoming req see
system.mem_ctrls.wrQLenPdf::17                  67582                       # What write queue length does an incoming req see
system.mem_ctrls.wrQLenPdf::18                  67601                       # What write queue length does an incoming req see
system.mem_ctrls.wrQLenPdf::19                  67594                       # What write queue length does an incoming req see
system.mem_ctrls.wrQLenPdf::20                  67583                       # What write queue length does an incoming req see
system.mem_ctrls.wrQLenPdf::21                  67579                       # What write queue length does an incoming req see
system.mem_ctrls.wrQLenPdf::22                  67572                       # What write queue length does an incoming req see
system.mem_ctrls.wrQLenPdf::23                  67581                       # What write queue length does an incoming req see
system.mem_ctrls.wrQLenPdf::24                  67572                       # What write queue length does an incoming req see
system.mem_ctrls.wrQLenPdf::25                  67588                       # What write queue length does an incoming req see
system.mem_ctrls.wrQLenPdf::26                  67573                       # What write queue length does an incoming req see
system.mem_ctrls.wrQLenPdf::27                  67596                       # What write queue length does an incoming req see
system.mem_ctrls.wrQLenPdf::28                  67601                       # What write queue length does an incoming req see
system.mem_ctrls.wrQLenPdf::29                  67579                       # What write queue length does an incoming req see
system.mem_ctrls.wrQLenPdf::30                  67577                       # What write queue length does an incoming req see
system.mem_ctrls.wrQLenPdf::31                  67568                       # What write queue length does an incoming req see
system.mem_ctrls.wrQLenPdf::32                  67568                       # What write queue length does an incoming req see
system.mem_ctrls.wrQLenPdf::33                      3                       # What write queue length does an incoming req see
system.mem_ctrls.wrQLenPdf::34                      0                       # What write queue length does an incoming req see
system.mem_ctrls.wrQLenPdf::35                      0                       # What write queue length does an incoming req see
system.mem_ctrls.wrQLenPdf::36                      0                       # What write queue length does an incoming req see
system.mem_ctrls.wrQLenPdf::37                      0                       # What write queue length does an incoming req see
system.mem_ctrls.wrQLenPdf::38                      0                       # What write queue length does an incoming req see
system.mem_ctrls.wrQLenPdf::39                      0                       # What write queue length does an incoming req see
system.mem_ctrls.wrQLenPdf::40                      0                       # What write queue length does an incoming req see
system.mem_ctrls.wrQLenPdf::41                      0                       # What write queue length does an incoming req see
system.mem_ctrls.wrQLenPdf::42                      0                       # What write queue length does an incoming req see
system.mem_ctrls.wrQLenPdf::43                      0                       # What write queue length does an incoming req see
system.mem_ctrls.wrQLenPdf::44                      0                       # What write queue length does an incoming req see
system.mem_ctrls.wrQLenPdf::45                      0                       # What write queue length does an incoming req see
system.mem_ctrls.wrQLenPdf::46                      0                       # What write queue length does an incoming req see
system.mem_ctrls.wrQLenPdf::47                      0                       # What write queue length does an incoming req see
system.mem_ctrls.wrQLenPdf::48                      0                       # What write queue length does an incoming req see
system.mem_ctrls.wrQLenPdf::49                      0                       # What write queue length does an incoming req see
system.mem_ctrls.wrQLenPdf::50                      0                       # What write queue length does an incoming req see
system.mem_ctrls.wrQLenPdf::51                      0                       # What write queue length does an incoming req see
system.mem_ctrls.wrQLenPdf::52                      0                       # What write queue length does an incoming req see
system.mem_ctrls.wrQLenPdf::53                      0                       # What write queue length does an incoming req see
system.mem_ctrls.wrQLenPdf::54                      0                       # What write queue length does an incoming req see
system.mem_ctrls.wrQLenPdf::55                      0                       # What write queue length does an incoming req see
system.mem_ctrls.wrQLenPdf::56                      0                       # What write queue length does an incoming req see
system.mem_ctrls.wrQLenPdf::57                      0                       # What write queue length does an incoming req see
system.mem_ctrls.wrQLenPdf::58                      0                       # What write queue length does an incoming req see
system.mem_ctrls.wrQLenPdf::59                      0                       # What write queue length does an incoming req see
system.mem_ctrls.wrQLenPdf::60                      0                       # What write queue length does an incoming req see
system.mem_ctrls.wrQLenPdf::61                      0                       # What write queue length does an incoming req see
system.mem_ctrls.wrQLenPdf::62                      0                       # What write queue length does an incoming req see
system.mem_ctrls.wrQLenPdf::63                      0                       # What write queue length does an incoming req see
system.mem_ctrls.bytesPerActivate::samples      5920591                       # Bytes accessed per row activation
system.mem_ctrls.bytesPerActivate::mean     84.308351                       # Bytes accessed per row activation
system.mem_ctrls.bytesPerActivate::gmean    71.101528                       # Bytes accessed per row activation
system.mem_ctrls.bytesPerActivate::stdev   109.844712                       # Bytes accessed per row activation
system.mem_ctrls.bytesPerActivate::0-127      5382130     90.91%     90.91% # Bytes accessed per row activation
system.mem_ctrls.bytesPerActivate::128-255       394449      6.66%     97.57% # Bytes accessed per row activation
system.mem_ctrls.bytesPerActivate::256-383        32692      0.55%     98.12% # Bytes accessed per row activation
system.mem_ctrls.bytesPerActivate::384-511        16033      0.27%     98.39% # Bytes accessed per row activation
system.mem_ctrls.bytesPerActivate::512-639        11123      0.19%     98.58% # Bytes accessed per row activation
system.mem_ctrls.bytesPerActivate::640-767        10745      0.18%     98.76% # Bytes accessed per row activation
system.mem_ctrls.bytesPerActivate::768-895        11971      0.20%     98.96% # Bytes accessed per row activation
system.mem_ctrls.bytesPerActivate::896-1023         8609      0.15%     99.11% # Bytes accessed per row activation
system.mem_ctrls.bytesPerActivate::1024-1151        52839      0.89%    100.00% # Bytes accessed per row activation
system.mem_ctrls.bytesPerActivate::total      5920591                       # Bytes accessed per row activation
system.mem_ctrls.rdPerTurnAround::samples        67568                       # Reads before turning the bus around for writes
system.mem_ctrls.rdPerTurnAround::mean      98.372084                       # Reads before turning the bus around for writes
system.mem_ctrls.rdPerTurnAround::gmean     56.965435                       # Reads before turning the bus around for writes
system.mem_ctrls.rdPerTurnAround::stdev    138.038565                       # Reads before turning the bus around for writes
system.mem_ctrls.rdPerTurnAround::0-255         59789     88.49%     88.49% # Reads before turning the bus around for writes
system.mem_ctrls.rdPerTurnAround::256-511         7108     10.52%     99.01% # Reads before turning the bus around for writes
system.mem_ctrls.rdPerTurnAround::512-767          387      0.57%     99.58% # Reads before turning the bus around for writes
system.mem_ctrls.rdPerTurnAround::768-1023          141      0.21%     99.79% # Reads before turning the bus around for writes
system.mem_ctrls.rdPerTurnAround::1024-1279           82      0.12%     99.91% # Reads before turning the bus around for writes
system.mem_ctrls.rdPerTurnAround::1280-1535           24      0.04%     99.95% # Reads before turning the bus around for writes
system.mem_ctrls.rdPerTurnAround::1536-1791            8      0.01%     99.96% # Reads before turning the bus around for writes
system.mem_ctrls.rdPerTurnAround::1792-2047           12      0.02%     99.97% # Reads before turning the bus around for writes
system.mem_ctrls.rdPerTurnAround::2048-2303            4      0.01%     99.98% # Reads before turning the bus around for writes
system.mem_ctrls.rdPerTurnAround::2304-2559            5      0.01%     99.99% # Reads before turning the bus around for writes
system.mem_ctrls.rdPerTurnAround::2816-3071            2      0.00%     99.99% # Reads before turning the bus around for writes
system.mem_ctrls.rdPerTurnAround::3328-3583            2      0.00%     99.99% # Reads before turning the bus around for writes
system.mem_ctrls.rdPerTurnAround::4352-4607            1      0.00%    100.00% # Reads before turning the bus around for writes
system.mem_ctrls.rdPerTurnAround::5120-5375            1      0.00%    100.00% # Reads before turning the bus around for writes
system.mem_ctrls.rdPerTurnAround::5376-5631            1      0.00%    100.00% # Reads before turning the bus around for writes
system.mem_ctrls.rdPerTurnAround::5632-5887            1      0.00%    100.00% # Reads before turning the bus around for writes
system.mem_ctrls.rdPerTurnAround::total         67568                       # Reads before turning the bus around for writes
system.mem_ctrls.wrPerTurnAround::samples        67568                       # Writes before turning the bus around for reads
system.mem_ctrls.wrPerTurnAround::mean      17.056654                       # Writes before turning the bus around for reads
system.mem_ctrls.wrPerTurnAround::gmean     17.027391                       # Writes before turning the bus around for reads
system.mem_ctrls.wrPerTurnAround::stdev      0.996829                       # Writes before turning the bus around for reads
system.mem_ctrls.wrPerTurnAround::16            31559     46.71%     46.71% # Writes before turning the bus around for reads
system.mem_ctrls.wrPerTurnAround::17              826      1.22%     47.93% # Writes before turning the bus around for reads
system.mem_ctrls.wrPerTurnAround::18            34980     51.77%     99.70% # Writes before turning the bus around for reads
system.mem_ctrls.wrPerTurnAround::19              202      0.30%    100.00% # Writes before turning the bus around for reads
system.mem_ctrls.wrPerTurnAround::20                1      0.00%    100.00% # Writes before turning the bus around for reads
system.mem_ctrls.wrPerTurnAround::total         67568                       # Writes before turning the bus around for reads
system.mem_ctrls.totQLat                 151974048500                       # Total ticks spent queuing
system.mem_ctrls.totMemAccLat            276601886000                       # Total ticks spent from burst creation until serviced by the DRAM
system.mem_ctrls.totBusLat                33234090000                       # Total ticks spent in databus transfers
system.mem_ctrls.avgQLat                     22864.18                       # Average queueing delay per DRAM burst
system.mem_ctrls.avgBusLat                    5000.00                       # Average bus latency per DRAM burst
system.mem_ctrls.avgMemAccLat                41614.18                       # Average memory access latency per DRAM burst
system.mem_ctrls.avgRdBW                       252.08                       # Average DRAM read bandwidth in MiByte/s
system.mem_ctrls.avgWrBW                        43.71                       # Average achieved write bandwidth in MiByte/s
system.mem_ctrls.avgRdBWSys                    253.08                       # Average system read bandwidth in MiByte/s
system.mem_ctrls.avgWrBWSys                     43.72                       # Average system write bandwidth in MiByte/s
system.mem_ctrls.peakBW                      12800.00                       # Theoretical peak bandwidth in MiByte/s
system.mem_ctrls.busUtil                         2.31                       # Data bus utilization in percentage
system.mem_ctrls.busUtilRead                     1.97                       # Data bus utilization in percentage for reads
system.mem_ctrls.busUtilWrite                    0.34                       # Data bus utilization in percentage for writes
system.mem_ctrls.avgRdQLen                       1.00                       # Average read queue length when enqueuing
system.mem_ctrls.avgWrQLen                      24.85                       # Average write queue length when enqueuing
system.mem_ctrls.readRowHits                  1341069                       # Number of row buffer hits during reads
system.mem_ctrls.writeRowHits                  537641                       # Number of row buffer hits during writes
system.mem_ctrls.readRowHitRate                 20.18                       # Row buffer hit rate for reads
system.mem_ctrls.writeRowHitRate                46.65                       # Row buffer hit rate for writes
system.mem_ctrls.avgGap                     215635.38                       # Average gap between requests
system.mem_ctrls.pageHitRate                    24.09                       # Row buffer hit rate, read and write combined
system.mem_ctrls_0.actEnergy              22405534200                       # Energy for activate commands per rank (pJ)
system.mem_ctrls_0.preEnergy              12225241875                       # Energy for precharge commands per rank (pJ)
system.mem_ctrls_0.readEnergy             25900547400                       # Energy for read commands per rank (pJ)
system.mem_ctrls_0.writeEnergy             3805380000                       # Energy for write commands per rank (pJ)
system.mem_ctrls_0.refreshEnergy         110220717360                       # Energy for refresh commands per rank (pJ)
system.mem_ctrls_0.actBackEnergy         888632033760                       # Energy for active background per rank (pJ)
system.mem_ctrls_0.preBackEnergy         233011413000                       # Energy for precharge background per rank (pJ)
system.mem_ctrls_0.totalEnergy           1296200867595                       # Total energy per rank (pJ)
system.mem_ctrls_0.averagePower            768.109021                       # Core power per rank (mW)
system.mem_ctrls_0.memoryStateTime::IDLE 382267056000                       # Time in different power states
system.mem_ctrls_0.memoryStateTime::REF   56350060000                       # Time in different power states
system.mem_ctrls_0.memoryStateTime::PRE_PDN            0                       # Time in different power states
system.mem_ctrls_0.memoryStateTime::ACT  1248907538000                       # Time in different power states
system.mem_ctrls_0.memoryStateTime::ACT_PDN            0                       # Time in different power states
system.mem_ctrls_1.actEnergy              22354133760                       # Energy for activate commands per rank (pJ)
system.mem_ctrls_1.preEnergy              12197196000                       # Energy for precharge commands per rank (pJ)
system.mem_ctrls_1.readEnergy             25944625200                       # Energy for read commands per rank (pJ)
system.mem_ctrls_1.writeEnergy             3662716320                       # Energy for write commands per rank (pJ)
system.mem_ctrls_1.refreshEnergy         110220717360                       # Energy for refresh commands per rank (pJ)
system.mem_ctrls_1.actBackEnergy         878886522315                       # Energy for active background per rank (pJ)
system.mem_ctrls_1.preBackEnergy         241560107250                       # Energy for precharge background per rank (pJ)
system.mem_ctrls_1.totalEnergy           1294826018205                       # Total energy per rank (pJ)
system.mem_ctrls_1.averagePower            767.294306                       # Core power per rank (mW)
system.mem_ctrls_1.memoryStateTime::IDLE 396201038250                       # Time in different power states
system.mem_ctrls_1.memoryStateTime::REF   56350060000                       # Time in different power states
system.mem_ctrls_1.memoryStateTime::PRE_PDN            0                       # Time in different power states
system.mem_ctrls_1.memoryStateTime::ACT  1234970910500                       # Time in different power states
system.mem_ctrls_1.memoryStateTime::ACT_PDN            0                       # Time in different power states
system.cpu_voltage_domain.voltage                   1                       # Voltage in Volts
system.cpu_clk_domain.clock                       500                       # Clock period in ticks
system.cpu.apic_clk_domain.clock                 8000                       # Clock period in ticks
system.cpu.workload.num_syscalls                  168                       # Number of system calls
system.cpu.numCycles                       3375050031                       # number of cpu cycles simulated
system.cpu.numWorkItemsStarted                      0                       # number of work items this cpu started
system.cpu.numWorkItemsCompleted                    0                       # number of work items this cpu completed
system.cpu.committedInsts                   500000000                       # Number of instructions committed
system.cpu.committedOps                     876313783                       # Number of ops (including micro ops) committed
system.cpu.num_int_alu_accesses             872966680                       # Number of integer alu accesses
system.cpu.num_fp_alu_accesses                2882231                       # Number of float alu accesses
system.cpu.num_func_calls                    11025254                       # number of times a function call or return occured
system.cpu.num_conditional_control_insts     75981009                       # number of instructions that are conditional controls
system.cpu.num_int_insts                    872966680                       # number of integer instructions
system.cpu.num_fp_insts                       2882231                       # number of float instructions
system.cpu.num_int_register_reads          1835046958                       # number of times the integer registers were read
system.cpu.num_int_register_writes          703076418                       # number of times the integer registers were written
system.cpu.num_fp_register_reads              4386063                       # number of times the floating registers were read
system.cpu.num_fp_register_writes             2464405                       # number of times the floating registers were written
system.cpu.num_cc_register_reads            441654667                       # number of times the CC registers were read
system.cpu.num_cc_register_writes           253505512                       # number of times the CC registers were written
system.cpu.num_mem_refs                     293763599                       # number of memory refs
system.cpu.num_load_insts                   221285042                       # Number of load instructions
system.cpu.num_store_insts                   72478557                       # Number of store instructions
system.cpu.num_idle_cycles                          0                       # Number of idle cycles
system.cpu.num_busy_cycles                 3375050031                       # Number of busy cycles
system.cpu.not_idle_fraction                        1                       # Percentage of non-idle cycles
system.cpu.idle_fraction                            0                       # Percentage of idle cycles
system.cpu.Branches                          97901001                       # Number of branches fetched
system.cpu.op_class::No_OpClass                939429      0.11%      0.11% # Class of executed instruction
system.cpu.op_class::IntAlu                 578420254     66.01%     66.11% # Class of executed instruction
system.cpu.op_class::IntMult                   907073      0.10%     66.22% # Class of executed instruction
system.cpu.op_class::IntDiv                        42      0.00%     66.22% # Class of executed instruction
system.cpu.op_class::FloatAdd                 2283386      0.26%     66.48% # Class of executed instruction
system.cpu.op_class::FloatCmp                       0      0.00%     66.48% # Class of executed instruction
system.cpu.op_class::FloatCvt                       0      0.00%     66.48% # Class of executed instruction
system.cpu.op_class::FloatMult                      0      0.00%     66.48% # Class of executed instruction
system.cpu.op_class::FloatDiv                       0      0.00%     66.48% # Class of executed instruction
system.cpu.op_class::FloatSqrt                      0      0.00%     66.48% # Class of executed instruction
system.cpu.op_class::SimdAdd                        0      0.00%     66.48% # Class of executed instruction
system.cpu.op_class::SimdAddAcc                     0      0.00%     66.48% # Class of executed instruction
system.cpu.op_class::SimdAlu                        0      0.00%     66.48% # Class of executed instruction
system.cpu.op_class::SimdCmp                        0      0.00%     66.48% # Class of executed instruction
system.cpu.op_class::SimdCvt                        0      0.00%     66.48% # Class of executed instruction
system.cpu.op_class::SimdMisc                       0      0.00%     66.48% # Class of executed instruction
system.cpu.op_class::SimdMult                       0      0.00%     66.48% # Class of executed instruction
system.cpu.op_class::SimdMultAcc                    0      0.00%     66.48% # Class of executed instruction
system.cpu.op_class::SimdShift                      0      0.00%     66.48% # Class of executed instruction
system.cpu.op_class::SimdShiftAcc                   0      0.00%     66.48% # Class of executed instruction
system.cpu.op_class::SimdSqrt                       0      0.00%     66.48% # Class of executed instruction
system.cpu.op_class::SimdFloatAdd                   0      0.00%     66.48% # Class of executed instruction
system.cpu.op_class::SimdFloatAlu                   0      0.00%     66.48% # Class of executed instruction
system.cpu.op_class::SimdFloatCmp                   0      0.00%     66.48% # Class of executed instruction
system.cpu.op_class::SimdFloatCvt                   0      0.00%     66.48% # Class of executed instruction
system.cpu.op_class::SimdFloatDiv                   0      0.00%     66.48% # Class of executed instruction
system.cpu.op_class::SimdFloatMisc                  0      0.00%     66.48% # Class of executed instruction
system.cpu.op_class::SimdFloatMult                  0      0.00%     66.48% # Class of executed instruction
system.cpu.op_class::SimdFloatMultAcc               0      0.00%     66.48% # Class of executed instruction
system.cpu.op_class::SimdFloatSqrt                  0      0.00%     66.48% # Class of executed instruction
system.cpu.op_class::MemRead                221285042     25.25%     91.73% # Class of executed instruction
system.cpu.op_class::MemWrite                72478557      8.27%    100.00% # Class of executed instruction
system.cpu.op_class::IprAccess                      0      0.00%    100.00% # Class of executed instruction
system.cpu.op_class::InstPrefetch                   0      0.00%    100.00% # Class of executed instruction
system.cpu.op_class::total                  876313783                       # Class of executed instruction
system.cpu.dcache.tags.replacements          14626645                       # number of replacements
system.cpu.dcache.tags.tagsinuse           511.967396                       # Cycle average of tags in use
system.cpu.dcache.tags.total_refs           279150570                       # Total number of references to valid blocks.
system.cpu.dcache.tags.sampled_refs          14627157                       # Sample count of references to valid blocks.
system.cpu.dcache.tags.avg_refs             19.084404                       # Average number of references to valid blocks.
system.cpu.dcache.tags.warmup_cycle         341491500                       # Cycle when the warmup percentage was hit.
system.cpu.dcache.tags.occ_blocks::cpu.data   511.967396                       # Average occupied blocks per requestor
system.cpu.dcache.tags.occ_percent::cpu.data     0.999936                       # Average percentage of cache occupancy
system.cpu.dcache.tags.occ_percent::total     0.999936                       # Average percentage of cache occupancy
system.cpu.dcache.tags.occ_task_id_blocks::1024          512                       # Occupied blocks per task id
system.cpu.dcache.tags.age_task_id_blocks_1024::0            6                       # Occupied blocks per task id
system.cpu.dcache.tags.age_task_id_blocks_1024::1          453                       # Occupied blocks per task id
system.cpu.dcache.tags.age_task_id_blocks_1024::2           51                       # Occupied blocks per task id
system.cpu.dcache.tags.age_task_id_blocks_1024::4            2                       # Occupied blocks per task id
system.cpu.dcache.tags.occ_task_id_percent::1024            1                       # Percentage of cache occupancy per task id
system.cpu.dcache.tags.tag_accesses        2364848973                       # Number of tag accesses
system.cpu.dcache.tags.data_accesses       2364848973                       # Number of data accesses
system.cpu.dcache.ReadReq_hits::cpu.data    207329045                       # number of ReadReq hits
system.cpu.dcache.ReadReq_hits::total       207329045                       # number of ReadReq hits
system.cpu.dcache.WriteReq_hits::cpu.data     71821525                       # number of WriteReq hits
system.cpu.dcache.WriteReq_hits::total       71821525                       # number of WriteReq hits
system.cpu.dcache.demand_hits::cpu.data     279150570                       # number of demand (read+write) hits
system.cpu.dcache.demand_hits::total        279150570                       # number of demand (read+write) hits
system.cpu.dcache.overall_hits::cpu.data    279150570                       # number of overall hits
system.cpu.dcache.overall_hits::total       279150570                       # number of overall hits
system.cpu.dcache.ReadReq_misses::cpu.data     13970124                       # number of ReadReq misses
system.cpu.dcache.ReadReq_misses::total      13970124                       # number of ReadReq misses
system.cpu.dcache.WriteReq_misses::cpu.data       657033                       # number of WriteReq misses
system.cpu.dcache.WriteReq_misses::total       657033                       # number of WriteReq misses
system.cpu.dcache.demand_misses::cpu.data     14627157                       # number of demand (read+write) misses
system.cpu.dcache.demand_misses::total       14627157                       # number of demand (read+write) misses
system.cpu.dcache.overall_misses::cpu.data     14627157                       # number of overall misses
system.cpu.dcache.overall_misses::total      14627157                       # number of overall misses
system.cpu.dcache.ReadReq_miss_latency::cpu.data 706839250500                       # number of ReadReq miss cycles
system.cpu.dcache.ReadReq_miss_latency::total 706839250500                       # number of ReadReq miss cycles
system.cpu.dcache.WriteReq_miss_latency::cpu.data  23713963500                       # number of WriteReq miss cycles
system.cpu.dcache.WriteReq_miss_latency::total  23713963500                       # number of WriteReq miss cycles
system.cpu.dcache.demand_miss_latency::cpu.data 730553214000                       # number of demand (read+write) miss cycles
system.cpu.dcache.demand_miss_latency::total 730553214000                       # number of demand (read+write) miss cycles
system.cpu.dcache.overall_miss_latency::cpu.data 730553214000                       # number of overall miss cycles
system.cpu.dcache.overall_miss_latency::total 730553214000                       # number of overall miss cycles
system.cpu.dcache.ReadReq_accesses::cpu.data    221299169                       # number of ReadReq accesses(hits+misses)
system.cpu.dcache.ReadReq_accesses::total    221299169                       # number of ReadReq accesses(hits+misses)
system.cpu.dcache.WriteReq_accesses::cpu.data     72478558                       # number of WriteReq accesses(hits+misses)
system.cpu.dcache.WriteReq_accesses::total     72478558                       # number of WriteReq accesses(hits+misses)
system.cpu.dcache.demand_accesses::cpu.data    293777727                       # number of demand (read+write) accesses
system.cpu.dcache.demand_accesses::total    293777727                       # number of demand (read+write) accesses
system.cpu.dcache.overall_accesses::cpu.data    293777727                       # number of overall (read+write) accesses
system.cpu.dcache.overall_accesses::total    293777727                       # number of overall (read+write) accesses
system.cpu.dcache.ReadReq_miss_rate::cpu.data     0.063128                       # miss rate for ReadReq accesses
system.cpu.dcache.ReadReq_miss_rate::total     0.063128                       # miss rate for ReadReq accesses
system.cpu.dcache.WriteReq_miss_rate::cpu.data     0.009065                       # miss rate for WriteReq accesses
system.cpu.dcache.WriteReq_miss_rate::total     0.009065                       # miss rate for WriteReq accesses
system.cpu.dcache.demand_miss_rate::cpu.data     0.049790                       # miss rate for demand accesses
system.cpu.dcache.demand_miss_rate::total     0.049790                       # miss rate for demand accesses
system.cpu.dcache.overall_miss_rate::cpu.data     0.049790                       # miss rate for overall accesses
system.cpu.dcache.overall_miss_rate::total     0.049790                       # miss rate for overall accesses
system.cpu.dcache.ReadReq_avg_miss_latency::cpu.data 50596.490804                       # average ReadReq miss latency
system.cpu.dcache.ReadReq_avg_miss_latency::total 50596.490804                       # average ReadReq miss latency
system.cpu.dcache.WriteReq_avg_miss_latency::cpu.data 36092.499920                       # average WriteReq miss latency
system.cpu.dcache.WriteReq_avg_miss_latency::total 36092.499920                       # average WriteReq miss latency
system.cpu.dcache.demand_avg_miss_latency::cpu.data 49944.990267                       # average overall miss latency
system.cpu.dcache.demand_avg_miss_latency::total 49944.990267                       # average overall miss latency
system.cpu.dcache.overall_avg_miss_latency::cpu.data 49944.990267                       # average overall miss latency
system.cpu.dcache.overall_avg_miss_latency::total 49944.990267                       # average overall miss latency
system.cpu.dcache.blocked_cycles::no_mshrs            0                       # number of cycles access was blocked
system.cpu.dcache.blocked_cycles::no_targets            0                       # number of cycles access was blocked
system.cpu.dcache.blocked::no_mshrs                 0                       # number of cycles access was blocked
system.cpu.dcache.blocked::no_targets               0                       # number of cycles access was blocked
system.cpu.dcache.avg_blocked_cycles::no_mshrs          nan                       # average number of cycles each access was blocked
system.cpu.dcache.avg_blocked_cycles::no_targets          nan                       # average number of cycles each access was blocked
system.cpu.dcache.fast_writes                       0                       # number of fast writes performed
system.cpu.dcache.cache_copies                      0                       # number of cache copies performed
system.cpu.dcache.writebacks::writebacks      4015096                       # number of writebacks
system.cpu.dcache.writebacks::total           4015096                       # number of writebacks
system.cpu.dcache.ReadReq_mshr_misses::cpu.data     13970124                       # number of ReadReq MSHR misses
system.cpu.dcache.ReadReq_mshr_misses::total     13970124                       # number of ReadReq MSHR misses
system.cpu.dcache.WriteReq_mshr_misses::cpu.data       657033                       # number of WriteReq MSHR misses
system.cpu.dcache.WriteReq_mshr_misses::total       657033                       # number of WriteReq MSHR misses
system.cpu.dcache.demand_mshr_misses::cpu.data     14627157                       # number of demand (read+write) MSHR misses
system.cpu.dcache.demand_mshr_misses::total     14627157                       # number of demand (read+write) MSHR misses
system.cpu.dcache.overall_mshr_misses::cpu.data     14627157                       # number of overall MSHR misses
system.cpu.dcache.overall_mshr_misses::total     14627157                       # number of overall MSHR misses
system.cpu.dcache.ReadReq_mshr_miss_latency::cpu.data 692869126500                       # number of ReadReq MSHR miss cycles
system.cpu.dcache.ReadReq_mshr_miss_latency::total 692869126500                       # number of ReadReq MSHR miss cycles
system.cpu.dcache.WriteReq_mshr_miss_latency::cpu.data  23056930500                       # number of WriteReq MSHR miss cycles
system.cpu.dcache.WriteReq_mshr_miss_latency::total  23056930500                       # number of WriteReq MSHR miss cycles
system.cpu.dcache.demand_mshr_miss_latency::cpu.data 715926057000                       # number of demand (read+write) MSHR miss cycles
system.cpu.dcache.demand_mshr_miss_latency::total 715926057000                       # number of demand (read+write) MSHR miss cycles
system.cpu.dcache.overall_mshr_miss_latency::cpu.data 715926057000                       # number of overall MSHR miss cycles
system.cpu.dcache.overall_mshr_miss_latency::total 715926057000                       # number of overall MSHR miss cycles
system.cpu.dcache.ReadReq_mshr_miss_rate::cpu.data     0.063128                       # mshr miss rate for ReadReq accesses
system.cpu.dcache.ReadReq_mshr_miss_rate::total     0.063128                       # mshr miss rate for ReadReq accesses
system.cpu.dcache.WriteReq_mshr_miss_rate::cpu.data     0.009065                       # mshr miss rate for WriteReq accesses
system.cpu.dcache.WriteReq_mshr_miss_rate::total     0.009065                       # mshr miss rate for WriteReq accesses
system.cpu.dcache.demand_mshr_miss_rate::cpu.data     0.049790                       # mshr miss rate for demand accesses
system.cpu.dcache.demand_mshr_miss_rate::total     0.049790                       # mshr miss rate for demand accesses
system.cpu.dcache.overall_mshr_miss_rate::cpu.data     0.049790                       # mshr miss rate for overall accesses
system.cpu.dcache.overall_mshr_miss_rate::total     0.049790                       # mshr miss rate for overall accesses
system.cpu.dcache.ReadReq_avg_mshr_miss_latency::cpu.data 49596.490804                       # average ReadReq mshr miss latency
system.cpu.dcache.ReadReq_avg_mshr_miss_latency::total 49596.490804                       # average ReadReq mshr miss latency
system.cpu.dcache.WriteReq_avg_mshr_miss_latency::cpu.data 35092.499920                       # average WriteReq mshr miss latency
system.cpu.dcache.WriteReq_avg_mshr_miss_latency::total 35092.499920                       # average WriteReq mshr miss latency
system.cpu.dcache.demand_avg_mshr_miss_latency::cpu.data 48944.990267                       # average overall mshr miss latency
system.cpu.dcache.demand_avg_mshr_miss_latency::total 48944.990267                       # average overall mshr miss latency
system.cpu.dcache.overall_avg_mshr_miss_latency::cpu.data 48944.990267                       # average overall mshr miss latency
system.cpu.dcache.overall_avg_mshr_miss_latency::total 48944.990267                       # average overall mshr miss latency
system.cpu.dcache.no_allocate_misses                0                       # Number of misses that were no-allocate
system.cpu.dtb_walker_cache.tags.replacements            0                       # number of replacements
system.cpu.dtb_walker_cache.tags.tagsinuse            0                       # Cycle average of tags in use
system.cpu.dtb_walker_cache.tags.total_refs            0                       # Total number of references to valid blocks.
system.cpu.dtb_walker_cache.tags.sampled_refs            0                       # Sample count of references to valid blocks.
system.cpu.dtb_walker_cache.tags.avg_refs          nan                       # Average number of references to valid blocks.
system.cpu.dtb_walker_cache.tags.warmup_cycle            0                       # Cycle when the warmup percentage was hit.
system.cpu.dtb_walker_cache.tags.tag_accesses            0                       # Number of tag accesses
system.cpu.dtb_walker_cache.tags.data_accesses            0                       # Number of data accesses
system.cpu.dtb_walker_cache.blocked_cycles::no_mshrs            0                       # number of cycles access was blocked
system.cpu.dtb_walker_cache.blocked_cycles::no_targets            0                       # number of cycles access was blocked
system.cpu.dtb_walker_cache.blocked::no_mshrs            0                       # number of cycles access was blocked
system.cpu.dtb_walker_cache.blocked::no_targets            0                       # number of cycles access was blocked
system.cpu.dtb_walker_cache.avg_blocked_cycles::no_mshrs          nan                       # average number of cycles each access was blocked
system.cpu.dtb_walker_cache.avg_blocked_cycles::no_targets          nan                       # average number of cycles each access was blocked
system.cpu.dtb_walker_cache.fast_writes             0                       # number of fast writes performed
system.cpu.dtb_walker_cache.cache_copies            0                       # number of cache copies performed
system.cpu.dtb_walker_cache.no_allocate_misses            0                       # Number of misses that were no-allocate
system.cpu.icache.tags.replacements             38006                       # number of replacements
system.cpu.icache.tags.tagsinuse           489.804817                       # Cycle average of tags in use
system.cpu.icache.tags.total_refs           677279427                       # Total number of references to valid blocks.
system.cpu.icache.tags.sampled_refs             38519                       # Sample count of references to valid blocks.
system.cpu.icache.tags.avg_refs          17582.996106                       # Average number of references to valid blocks.
system.cpu.icache.tags.warmup_cycle                 0                       # Cycle when the warmup percentage was hit.
system.cpu.icache.tags.occ_blocks::cpu.inst   489.804817                       # Average occupied blocks per requestor
system.cpu.icache.tags.occ_percent::cpu.inst     0.478325                       # Average percentage of cache occupancy
system.cpu.icache.tags.occ_percent::total     0.478325                       # Average percentage of cache occupancy
system.cpu.icache.tags.occ_task_id_blocks::1024          513                       # Occupied blocks per task id
system.cpu.icache.tags.age_task_id_blocks_1024::4          513                       # Occupied blocks per task id
system.cpu.icache.tags.occ_task_id_percent::1024     0.500977                       # Percentage of cache occupancy per task id
system.cpu.icache.tags.tag_accesses         677356465                       # Number of tag accesses
system.cpu.icache.tags.data_accesses        677356465                       # Number of data accesses
system.cpu.icache.ReadReq_hits::cpu.inst    677279427                       # number of ReadReq hits
system.cpu.icache.ReadReq_hits::total       677279427                       # number of ReadReq hits
system.cpu.icache.demand_hits::cpu.inst     677279427                       # number of demand (read+write) hits
system.cpu.icache.demand_hits::total        677279427                       # number of demand (read+write) hits
system.cpu.icache.overall_hits::cpu.inst    677279427                       # number of overall hits
system.cpu.icache.overall_hits::total       677279427                       # number of overall hits
system.cpu.icache.ReadReq_misses::cpu.inst        38519                       # number of ReadReq misses
system.cpu.icache.ReadReq_misses::total         38519                       # number of ReadReq misses
system.cpu.icache.demand_misses::cpu.inst        38519                       # number of demand (read+write) misses
system.cpu.icache.demand_misses::total          38519                       # number of demand (read+write) misses
system.cpu.icache.overall_misses::cpu.inst        38519                       # number of overall misses
system.cpu.icache.overall_misses::total         38519                       # number of overall misses
system.cpu.icache.ReadReq_miss_latency::cpu.inst    548871000                       # number of ReadReq miss cycles
system.cpu.icache.ReadReq_miss_latency::total    548871000                       # number of ReadReq miss cycles
system.cpu.icache.demand_miss_latency::cpu.inst    548871000                       # number of demand (read+write) miss cycles
system.cpu.icache.demand_miss_latency::total    548871000                       # number of demand (read+write) miss cycles
system.cpu.icache.overall_miss_latency::cpu.inst    548871000                       # number of overall miss cycles
system.cpu.icache.overall_miss_latency::total    548871000                       # number of overall miss cycles
system.cpu.icache.ReadReq_accesses::cpu.inst    677317946                       # number of ReadReq accesses(hits+misses)
system.cpu.icache.ReadReq_accesses::total    677317946                       # number of ReadReq accesses(hits+misses)
system.cpu.icache.demand_accesses::cpu.inst    677317946                       # number of demand (read+write) accesses
system.cpu.icache.demand_accesses::total    677317946                       # number of demand (read+write) accesses
system.cpu.icache.overall_accesses::cpu.inst    677317946                       # number of overall (read+write) accesses
system.cpu.icache.overall_accesses::total    677317946                       # number of overall (read+write) accesses
system.cpu.icache.ReadReq_miss_rate::cpu.inst     0.000057                       # miss rate for ReadReq accesses
system.cpu.icache.ReadReq_miss_rate::total     0.000057                       # miss rate for ReadReq accesses
system.cpu.icache.demand_miss_rate::cpu.inst     0.000057                       # miss rate for demand accesses
system.cpu.icache.demand_miss_rate::total     0.000057                       # miss rate for demand accesses
system.cpu.icache.overall_miss_rate::cpu.inst     0.000057                       # miss rate for overall accesses
system.cpu.icache.overall_miss_rate::total     0.000057                       # miss rate for overall accesses
system.cpu.icache.ReadReq_avg_miss_latency::cpu.inst 14249.357460                       # average ReadReq miss latency
system.cpu.icache.ReadReq_avg_miss_latency::total 14249.357460                       # average ReadReq miss latency
system.cpu.icache.demand_avg_miss_latency::cpu.inst 14249.357460                       # average overall miss latency
system.cpu.icache.demand_avg_miss_latency::total 14249.357460                       # average overall miss latency
system.cpu.icache.overall_avg_miss_latency::cpu.inst 14249.357460                       # average overall miss latency
system.cpu.icache.overall_avg_miss_latency::total 14249.357460                       # average overall miss latency
system.cpu.icache.blocked_cycles::no_mshrs            0                       # number of cycles access was blocked
system.cpu.icache.blocked_cycles::no_targets            0                       # number of cycles access was blocked
system.cpu.icache.blocked::no_mshrs                 0                       # number of cycles access was blocked
system.cpu.icache.blocked::no_targets               0                       # number of cycles access was blocked
system.cpu.icache.avg_blocked_cycles::no_mshrs          nan                       # average number of cycles each access was blocked
system.cpu.icache.avg_blocked_cycles::no_targets          nan                       # average number of cycles each access was blocked
system.cpu.icache.fast_writes                       0                       # number of fast writes performed
system.cpu.icache.cache_copies                      0                       # number of cache copies performed
system.cpu.icache.writebacks::writebacks        38006                       # number of writebacks
system.cpu.icache.writebacks::total             38006                       # number of writebacks
system.cpu.icache.ReadReq_mshr_misses::cpu.inst        38519                       # number of ReadReq MSHR misses
system.cpu.icache.ReadReq_mshr_misses::total        38519                       # number of ReadReq MSHR misses
system.cpu.icache.demand_mshr_misses::cpu.inst        38519                       # number of demand (read+write) MSHR misses
system.cpu.icache.demand_mshr_misses::total        38519                       # number of demand (read+write) MSHR misses
system.cpu.icache.overall_mshr_misses::cpu.inst        38519                       # number of overall MSHR misses
system.cpu.icache.overall_mshr_misses::total        38519                       # number of overall MSHR misses
system.cpu.icache.ReadReq_mshr_miss_latency::cpu.inst    510352000                       # number of ReadReq MSHR miss cycles
system.cpu.icache.ReadReq_mshr_miss_latency::total    510352000                       # number of ReadReq MSHR miss cycles
system.cpu.icache.demand_mshr_miss_latency::cpu.inst    510352000                       # number of demand (read+write) MSHR miss cycles
system.cpu.icache.demand_mshr_miss_latency::total    510352000                       # number of demand (read+write) MSHR miss cycles
system.cpu.icache.overall_mshr_miss_latency::cpu.inst    510352000                       # number of overall MSHR miss cycles
system.cpu.icache.overall_mshr_miss_latency::total    510352000                       # number of overall MSHR miss cycles
system.cpu.icache.ReadReq_mshr_miss_rate::cpu.inst     0.000057                       # mshr miss rate for ReadReq accesses
system.cpu.icache.ReadReq_mshr_miss_rate::total     0.000057                       # mshr miss rate for ReadReq accesses
system.cpu.icache.demand_mshr_miss_rate::cpu.inst     0.000057                       # mshr miss rate for demand accesses
system.cpu.icache.demand_mshr_miss_rate::total     0.000057                       # mshr miss rate for demand accesses
system.cpu.icache.overall_mshr_miss_rate::cpu.inst     0.000057                       # mshr miss rate for overall accesses
system.cpu.icache.overall_mshr_miss_rate::total     0.000057                       # mshr miss rate for overall accesses
system.cpu.icache.ReadReq_avg_mshr_miss_latency::cpu.inst 13249.357460                       # average ReadReq mshr miss latency
system.cpu.icache.ReadReq_avg_mshr_miss_latency::total 13249.357460                       # average ReadReq mshr miss latency
system.cpu.icache.demand_avg_mshr_miss_latency::cpu.inst 13249.357460                       # average overall mshr miss latency
system.cpu.icache.demand_avg_mshr_miss_latency::total 13249.357460                       # average overall mshr miss latency
system.cpu.icache.overall_avg_mshr_miss_latency::cpu.inst 13249.357460                       # average overall mshr miss latency
system.cpu.icache.overall_avg_mshr_miss_latency::total 13249.357460                       # average overall mshr miss latency
system.cpu.icache.no_allocate_misses                0                       # Number of misses that were no-allocate
system.cpu.itb_walker_cache.tags.replacements            0                       # number of replacements
system.cpu.itb_walker_cache.tags.tagsinuse            0                       # Cycle average of tags in use
system.cpu.itb_walker_cache.tags.total_refs            0                       # Total number of references to valid blocks.
system.cpu.itb_walker_cache.tags.sampled_refs            0                       # Sample count of references to valid blocks.
system.cpu.itb_walker_cache.tags.avg_refs          nan                       # Average number of references to valid blocks.
system.cpu.itb_walker_cache.tags.warmup_cycle            0                       # Cycle when the warmup percentage was hit.
system.cpu.itb_walker_cache.tags.tag_accesses            0                       # Number of tag accesses
system.cpu.itb_walker_cache.tags.data_accesses            0                       # Number of data accesses
system.cpu.itb_walker_cache.blocked_cycles::no_mshrs            0                       # number of cycles access was blocked
system.cpu.itb_walker_cache.blocked_cycles::no_targets            0                       # number of cycles access was blocked
system.cpu.itb_walker_cache.blocked::no_mshrs            0                       # number of cycles access was blocked
system.cpu.itb_walker_cache.blocked::no_targets            0                       # number of cycles access was blocked
system.cpu.itb_walker_cache.avg_blocked_cycles::no_mshrs          nan                       # average number of cycles each access was blocked
system.cpu.itb_walker_cache.avg_blocked_cycles::no_targets          nan                       # average number of cycles each access was blocked
system.cpu.itb_walker_cache.fast_writes             0                       # number of fast writes performed
system.cpu.itb_walker_cache.cache_copies            0                       # number of cache copies performed
system.cpu.itb_walker_cache.no_allocate_misses            0                       # Number of misses that were no-allocate
system.l2.tags.replacements                   6717954                       # number of replacements
system.l2.tags.tagsinuse                 16244.183037                       # Cycle average of tags in use
system.l2.tags.total_refs                    21688605                       # Total number of references to valid blocks.
system.l2.tags.sampled_refs                   6734288                       # Sample count of references to valid blocks.
system.l2.tags.avg_refs                      3.220623                       # Average number of references to valid blocks.
system.l2.tags.warmup_cycle              330983200500                       # Cycle when the warmup percentage was hit.
system.l2.tags.occ_blocks::writebacks     3100.976241                       # Average occupied blocks per requestor
system.l2.tags.occ_blocks::cpu.inst          1.767966                       # Average occupied blocks per requestor
system.l2.tags.occ_blocks::cpu.data      13141.438831                       # Average occupied blocks per requestor
system.l2.tags.occ_percent::writebacks       0.189269                       # Average percentage of cache occupancy
system.l2.tags.occ_percent::cpu.inst         0.000108                       # Average percentage of cache occupancy
system.l2.tags.occ_percent::cpu.data         0.802090                       # Average percentage of cache occupancy
system.l2.tags.occ_percent::total            0.991466                       # Average percentage of cache occupancy
system.l2.tags.occ_task_id_blocks::1024         16334                       # Occupied blocks per task id
system.l2.tags.age_task_id_blocks_1024::1          411                       # Occupied blocks per task id
system.l2.tags.age_task_id_blocks_1024::2         3212                       # Occupied blocks per task id
system.l2.tags.age_task_id_blocks_1024::3         9593                       # Occupied blocks per task id
system.l2.tags.age_task_id_blocks_1024::4         3118                       # Occupied blocks per task id
system.l2.tags.occ_task_id_percent::1024     0.996948                       # Percentage of cache occupancy per task id
system.l2.tags.tag_accesses                  36721647                       # Number of tag accesses
system.l2.tags.data_accesses                 36721647                       # Number of data accesses
system.l2.WritebackDirty_hits::writebacks      4015096                       # number of WritebackDirty hits
system.l2.WritebackDirty_hits::total          4015096                       # number of WritebackDirty hits
system.l2.WritebackClean_hits::writebacks        38005                       # number of WritebackClean hits
system.l2.WritebackClean_hits::total            38005                       # number of WritebackClean hits
system.l2.ReadExReq_hits::cpu.data             438405                       # number of ReadExReq hits
system.l2.ReadExReq_hits::total                438405                       # number of ReadExReq hits
system.l2.ReadCleanReq_hits::cpu.inst           37814                       # number of ReadCleanReq hits
system.l2.ReadCleanReq_hits::total              37814                       # number of ReadCleanReq hits
system.l2.ReadSharedReq_hits::cpu.data        7516401                       # number of ReadSharedReq hits
system.l2.ReadSharedReq_hits::total           7516401                       # number of ReadSharedReq hits
system.l2.demand_hits::cpu.inst                 37814                       # number of demand (read+write) hits
system.l2.demand_hits::cpu.data               7954806                       # number of demand (read+write) hits
system.l2.demand_hits::total                  7992620                       # number of demand (read+write) hits
system.l2.overall_hits::cpu.inst                37814                       # number of overall hits
system.l2.overall_hits::cpu.data              7954806                       # number of overall hits
system.l2.overall_hits::total                 7992620                       # number of overall hits
system.l2.ReadExReq_misses::cpu.data           218628                       # number of ReadExReq misses
system.l2.ReadExReq_misses::total              218628                       # number of ReadExReq misses
system.l2.ReadCleanReq_misses::cpu.inst           705                       # number of ReadCleanReq misses
system.l2.ReadCleanReq_misses::total              705                       # number of ReadCleanReq misses
system.l2.ReadSharedReq_misses::cpu.data      6453723                       # number of ReadSharedReq misses
system.l2.ReadSharedReq_misses::total         6453723                       # number of ReadSharedReq misses
system.l2.demand_misses::cpu.inst                 705                       # number of demand (read+write) misses
system.l2.demand_misses::cpu.data             6672351                       # number of demand (read+write) misses
system.l2.demand_misses::total                6673056                       # number of demand (read+write) misses
system.l2.overall_misses::cpu.inst                705                       # number of overall misses
system.l2.overall_misses::cpu.data            6672351                       # number of overall misses
system.l2.overall_misses::total               6673056                       # number of overall misses
system.l2.ReadExReq_miss_latency::cpu.data  17468127500                       # number of ReadExReq miss cycles
system.l2.ReadExReq_miss_latency::total   17468127500                       # number of ReadExReq miss cycles
system.l2.ReadCleanReq_miss_latency::cpu.inst     55521500                       # number of ReadCleanReq miss cycles
system.l2.ReadCleanReq_miss_latency::total     55521500                       # number of ReadCleanReq miss cycles
system.l2.ReadSharedReq_miss_latency::cpu.data 592991728000                       # number of ReadSharedReq miss cycles
system.l2.ReadSharedReq_miss_latency::total 592991728000                       # number of ReadSharedReq miss cycles
system.l2.demand_miss_latency::cpu.inst      55521500                       # number of demand (read+write) miss cycles
system.l2.demand_miss_latency::cpu.data  610459855500                       # number of demand (read+write) miss cycles
system.l2.demand_miss_latency::total     610515377000                       # number of demand (read+write) miss cycles
system.l2.overall_miss_latency::cpu.inst     55521500                       # number of overall miss cycles
system.l2.overall_miss_latency::cpu.data 610459855500                       # number of overall miss cycles
system.l2.overall_miss_latency::total    610515377000                       # number of overall miss cycles
system.l2.WritebackDirty_accesses::writebacks      4015096                       # number of WritebackDirty accesses(hits+misses)
system.l2.WritebackDirty_accesses::total      4015096                       # number of WritebackDirty accesses(hits+misses)
system.l2.WritebackClean_accesses::writebacks        38005                       # number of WritebackClean accesses(hits+misses)
system.l2.WritebackClean_accesses::total        38005                       # number of WritebackClean accesses(hits+misses)
system.l2.ReadExReq_accesses::cpu.data         657033                       # number of ReadExReq accesses(hits+misses)
system.l2.ReadExReq_accesses::total            657033                       # number of ReadExReq accesses(hits+misses)
system.l2.ReadCleanReq_accesses::cpu.inst        38519                       # number of ReadCleanReq accesses(hits+misses)
system.l2.ReadCleanReq_accesses::total          38519                       # number of ReadCleanReq accesses(hits+misses)
system.l2.ReadSharedReq_accesses::cpu.data     13970124                       # number of ReadSharedReq accesses(hits+misses)
system.l2.ReadSharedReq_accesses::total      13970124                       # number of ReadSharedReq accesses(hits+misses)
system.l2.demand_accesses::cpu.inst             38519                       # number of demand (read+write) accesses
system.l2.demand_accesses::cpu.data          14627157                       # number of demand (read+write) accesses
system.l2.demand_accesses::total             14665676                       # number of demand (read+write) accesses
system.l2.overall_accesses::cpu.inst            38519                       # number of overall (read+write) accesses
system.l2.overall_accesses::cpu.data         14627157                       # number of overall (read+write) accesses
system.l2.overall_accesses::total            14665676                       # number of overall (read+write) accesses
system.l2.ReadExReq_miss_rate::cpu.data      0.332750                       # miss rate for ReadExReq accesses
system.l2.ReadExReq_miss_rate::total         0.332750                       # miss rate for ReadExReq accesses
system.l2.ReadCleanReq_miss_rate::cpu.inst     0.018303                       # miss rate for ReadCleanReq accesses
system.l2.ReadCleanReq_miss_rate::total      0.018303                       # miss rate for ReadCleanReq accesses
system.l2.ReadSharedReq_miss_rate::cpu.data     0.461966                       # miss rate for ReadSharedReq accesses
system.l2.ReadSharedReq_miss_rate::total     0.461966                       # miss rate for ReadSharedReq accesses
system.l2.demand_miss_rate::cpu.inst         0.018303                       # miss rate for demand accesses
system.l2.demand_miss_rate::cpu.data         0.456162                       # miss rate for demand accesses
system.l2.demand_miss_rate::total            0.455012                       # miss rate for demand accesses
system.l2.overall_miss_rate::cpu.inst        0.018303                       # miss rate for overall accesses
system.l2.overall_miss_rate::cpu.data        0.456162                       # miss rate for overall accesses
system.l2.overall_miss_rate::total           0.455012                       # miss rate for overall accesses
system.l2.ReadExReq_avg_miss_latency::cpu.data 79898.857877                       # average ReadExReq miss latency
system.l2.ReadExReq_avg_miss_latency::total 79898.857877                       # average ReadExReq miss latency
system.l2.ReadCleanReq_avg_miss_latency::cpu.inst 78753.900709                       # average ReadCleanReq miss latency
system.l2.ReadCleanReq_avg_miss_latency::total 78753.900709                       # average ReadCleanReq miss latency
system.l2.ReadSharedReq_avg_miss_latency::cpu.data 91883.665909                       # average ReadSharedReq miss latency
system.l2.ReadSharedReq_avg_miss_latency::total 91883.665909                       # average ReadSharedReq miss latency
system.l2.demand_avg_miss_latency::cpu.inst 78753.900709                       # average overall miss latency
system.l2.demand_avg_miss_latency::cpu.data 91490.968551                       # average overall miss latency
system.l2.demand_avg_miss_latency::total 91489.622895                       # average overall miss latency
system.l2.overall_avg_miss_latency::cpu.inst 78753.900709                       # average overall miss latency
system.l2.overall_avg_miss_latency::cpu.data 91490.968551                       # average overall miss latency
system.l2.overall_avg_miss_latency::total 91489.622895                       # average overall miss latency
system.l2.blocked_cycles::no_mshrs                  0                       # number of cycles access was blocked
system.l2.blocked_cycles::no_targets                0                       # number of cycles access was blocked
system.l2.blocked::no_mshrs                         0                       # number of cycles access was blocked
system.l2.blocked::no_targets                       0                       # number of cycles access was blocked
system.l2.avg_blocked_cycles::no_mshrs            nan                       # average number of cycles each access was blocked
system.l2.avg_blocked_cycles::no_targets          nan                       # average number of cycles each access was blocked
system.l2.fast_writes                               0                       # number of fast writes performed
system.l2.cache_copies                              0                       # number of cache copies performed
system.l2.writebacks::writebacks              1152769                       # number of writebacks
system.l2.writebacks::total                   1152769                       # number of writebacks
system.l2.CleanEvict_mshr_misses::writebacks       249536                       # number of CleanEvict MSHR misses
system.l2.CleanEvict_mshr_misses::total        249536                       # number of CleanEvict MSHR misses
system.l2.ReadExReq_mshr_misses::cpu.data       218628                       # number of ReadExReq MSHR misses
system.l2.ReadExReq_mshr_misses::total         218628                       # number of ReadExReq MSHR misses
system.l2.ReadCleanReq_mshr_misses::cpu.inst          705                       # number of ReadCleanReq MSHR misses
system.l2.ReadCleanReq_mshr_misses::total          705                       # number of ReadCleanReq MSHR misses
system.l2.ReadSharedReq_mshr_misses::cpu.data      6453723                       # number of ReadSharedReq MSHR misses
system.l2.ReadSharedReq_mshr_misses::total      6453723                       # number of ReadSharedReq MSHR misses
system.l2.demand_mshr_misses::cpu.inst            705                       # number of demand (read+write) MSHR misses
system.l2.demand_mshr_misses::cpu.data        6672351                       # number of demand (read+write) MSHR misses
system.l2.demand_mshr_misses::total           6673056                       # number of demand (read+write) MSHR misses
system.l2.overall_mshr_misses::cpu.inst           705                       # number of overall MSHR misses
system.l2.overall_mshr_misses::cpu.data       6672351                       # number of overall MSHR misses
system.l2.overall_mshr_misses::total          6673056                       # number of overall MSHR misses
system.l2.ReadExReq_mshr_miss_latency::cpu.data  15281847500                       # number of ReadExReq MSHR miss cycles
system.l2.ReadExReq_mshr_miss_latency::total  15281847500                       # number of ReadExReq MSHR miss cycles
system.l2.ReadCleanReq_mshr_miss_latency::cpu.inst     48471500                       # number of ReadCleanReq MSHR miss cycles
system.l2.ReadCleanReq_mshr_miss_latency::total     48471500                       # number of ReadCleanReq MSHR miss cycles
system.l2.ReadSharedReq_mshr_miss_latency::cpu.data 528454498000                       # number of ReadSharedReq MSHR miss cycles
system.l2.ReadSharedReq_mshr_miss_latency::total 528454498000                       # number of ReadSharedReq MSHR miss cycles
system.l2.demand_mshr_miss_latency::cpu.inst     48471500                       # number of demand (read+write) MSHR miss cycles
system.l2.demand_mshr_miss_latency::cpu.data 543736345500                       # number of demand (read+write) MSHR miss cycles
system.l2.demand_mshr_miss_latency::total 543784817000                       # number of demand (read+write) MSHR miss cycles
system.l2.overall_mshr_miss_latency::cpu.inst     48471500                       # number of overall MSHR miss cycles
system.l2.overall_mshr_miss_latency::cpu.data 543736345500                       # number of overall MSHR miss cycles
system.l2.overall_mshr_miss_latency::total 543784817000                       # number of overall MSHR miss cycles
system.l2.CleanEvict_mshr_miss_rate::writebacks          inf                       # mshr miss rate for CleanEvict accesses
system.l2.CleanEvict_mshr_miss_rate::total          inf                       # mshr miss rate for CleanEvict accesses
system.l2.ReadExReq_mshr_miss_rate::cpu.data     0.332750                       # mshr miss rate for ReadExReq accesses
system.l2.ReadExReq_mshr_miss_rate::total     0.332750                       # mshr miss rate for ReadExReq accesses
system.l2.ReadCleanReq_mshr_miss_rate::cpu.inst     0.018303                       # mshr miss rate for ReadCleanReq accesses
system.l2.ReadCleanReq_mshr_miss_rate::total     0.018303                       # mshr miss rate for ReadCleanReq accesses
system.l2.ReadSharedReq_mshr_miss_rate::cpu.data     0.461966                       # mshr miss rate for ReadSharedReq accesses
system.l2.ReadSharedReq_mshr_miss_rate::total     0.461966                       # mshr miss rate for ReadSharedReq accesses
system.l2.demand_mshr_miss_rate::cpu.inst     0.018303                       # mshr miss rate for demand accesses
system.l2.demand_mshr_miss_rate::cpu.data     0.456162                       # mshr miss rate for demand accesses
system.l2.demand_mshr_miss_rate::total       0.455012                       # mshr miss rate for demand accesses
system.l2.overall_mshr_miss_rate::cpu.inst     0.018303                       # mshr miss rate for overall accesses
system.l2.overall_mshr_miss_rate::cpu.data     0.456162                       # mshr miss rate for overall accesses
system.l2.overall_mshr_miss_rate::total      0.455012                       # mshr miss rate for overall accesses
system.l2.ReadExReq_avg_mshr_miss_latency::cpu.data 69898.857877                       # average ReadExReq mshr miss latency
system.l2.ReadExReq_avg_mshr_miss_latency::total 69898.857877                       # average ReadExReq mshr miss latency
system.l2.ReadCleanReq_avg_mshr_miss_latency::cpu.inst 68753.900709                       # average ReadCleanReq mshr miss latency
system.l2.ReadCleanReq_avg_mshr_miss_latency::total 68753.900709                       # average ReadCleanReq mshr miss latency
system.l2.ReadSharedReq_avg_mshr_miss_latency::cpu.data 81883.665909                       # average ReadSharedReq mshr miss latency
system.l2.ReadSharedReq_avg_mshr_miss_latency::total 81883.665909                       # average ReadSharedReq mshr miss latency
system.l2.demand_avg_mshr_miss_latency::cpu.inst 68753.900709                       # average overall mshr miss latency
system.l2.demand_avg_mshr_miss_latency::cpu.data 81490.968551                       # average overall mshr miss latency
system.l2.demand_avg_mshr_miss_latency::total 81489.622895                       # average overall mshr miss latency
system.l2.overall_avg_mshr_miss_latency::cpu.inst 68753.900709                       # average overall mshr miss latency
system.l2.overall_avg_mshr_miss_latency::cpu.data 81490.968551                       # average overall mshr miss latency
system.l2.overall_avg_mshr_miss_latency::total 81489.622895                       # average overall mshr miss latency
system.l2.no_allocate_misses                        0                       # Number of misses that were no-allocate
system.membus.trans_dist::ReadResp            6454428                       # Transaction distribution
system.membus.trans_dist::WritebackDirty      1152769                       # Transaction distribution
system.membus.trans_dist::CleanEvict          5503385                       # Transaction distribution
system.membus.trans_dist::ReadExReq            218628                       # Transaction distribution
system.membus.trans_dist::ReadExResp           218628                       # Transaction distribution
system.membus.trans_dist::ReadSharedReq       6454428                       # Transaction distribution
system.membus.pkt_count_system.l2.mem_side::system.mem_ctrls.port     20002266                       # Packet count per connected master and slave (bytes)
system.membus.pkt_count_system.l2.mem_side::total     20002266                       # Packet count per connected master and slave (bytes)
system.membus.pkt_count::total               20002266                       # Packet count per connected master and slave (bytes)
system.membus.pkt_size_system.l2.mem_side::system.mem_ctrls.port    500852800                       # Cumulative packet size per connected master and slave (bytes)
system.membus.pkt_size_system.l2.mem_side::total    500852800                       # Cumulative packet size per connected master and slave (bytes)
system.membus.pkt_size::total               500852800                       # Cumulative packet size per connected master and slave (bytes)
system.membus.snoops                                0                       # Total snoops (count)
system.membus.snoop_fanout::samples          13329210                       # Request fanout histogram
system.membus.snoop_fanout::mean                    0                       # Request fanout histogram
system.membus.snoop_fanout::stdev                   0                       # Request fanout histogram
system.membus.snoop_fanout::underflows              0      0.00%      0.00% # Request fanout histogram
system.membus.snoop_fanout::0                13329210    100.00%    100.00% # Request fanout histogram
system.membus.snoop_fanout::1                       0      0.00%    100.00% # Request fanout histogram
system.membus.snoop_fanout::overflows               0      0.00%    100.00% # Request fanout histogram
system.membus.snoop_fanout::min_value               0                       # Request fanout histogram
system.membus.snoop_fanout::max_value               0                       # Request fanout histogram
system.membus.snoop_fanout::total            13329210                       # Request fanout histogram
system.membus.reqLayer2.occupancy         17947352000                       # Layer occupancy (ticks)
system.membus.reqLayer2.utilization               1.1                       # Layer utilization (%)
system.membus.respLayer1.occupancy        37217574000                       # Layer occupancy (ticks)
system.membus.respLayer1.utilization              2.2                       # Layer utilization (%)
system.tol2bus.snoop_filter.tot_requests     29330327                       # Total number of requests made to the snoop filter.
system.tol2bus.snoop_filter.hit_single_requests     14664651                       # Number of requests hitting in the snoop filter with a single holder of the requested data.
system.tol2bus.snoop_filter.hit_multi_requests            1                       # Number of requests hitting in the snoop filter with multiple (>1) holders of the requested data.
system.tol2bus.snoop_filter.tot_snoops         311336                       # Total number of snoops made to the snoop filter.
system.tol2bus.snoop_filter.hit_single_snoops       311336                       # Number of snoops hitting in the snoop filter with a single holder of the requested data.
system.tol2bus.snoop_filter.hit_multi_snoops            0                       # Number of snoops hitting in the snoop filter with multiple (>1) holders of the requested data.
system.tol2bus.trans_dist::ReadResp          14008643                       # Transaction distribution
system.tol2bus.trans_dist::WritebackDirty      5167865                       # Transaction distribution
system.tol2bus.trans_dist::WritebackClean        38005                       # Transaction distribution
system.tol2bus.trans_dist::CleanEvict        16176734                       # Transaction distribution
system.tol2bus.trans_dist::ReadExReq           657033                       # Transaction distribution
system.tol2bus.trans_dist::ReadExResp          657033                       # Transaction distribution
system.tol2bus.trans_dist::ReadCleanReq         38519                       # Transaction distribution
system.tol2bus.trans_dist::ReadSharedReq     13970124                       # Transaction distribution
system.tol2bus.pkt_count_system.cpu.icache.mem_side::system.l2.cpu_side       115043                       # Packet count per connected master and slave (bytes)
system.tol2bus.pkt_count_system.cpu.dcache.mem_side::system.l2.cpu_side     43880959                       # Packet count per connected master and slave (bytes)
system.tol2bus.pkt_count::total              43996002                       # Packet count per connected master and slave (bytes)
system.tol2bus.pkt_size_system.cpu.icache.mem_side::system.l2.cpu_side      4897536                       # Cumulative packet size per connected master and slave (bytes)
system.tol2bus.pkt_size_system.cpu.dcache.mem_side::system.l2.cpu_side   1193104192                       # Cumulative packet size per connected master and slave (bytes)
system.tol2bus.pkt_size::total             1198001728                       # Cumulative packet size per connected master and slave (bytes)
system.tol2bus.snoops                         6717954                       # Total snoops (count)
system.tol2bus.snoop_fanout::samples         21383630                       # Request fanout histogram
system.tol2bus.snoop_fanout::mean            0.014560                       # Request fanout histogram
system.tol2bus.snoop_fanout::stdev           0.119782                       # Request fanout histogram
system.tol2bus.snoop_fanout::underflows             0      0.00%      0.00% # Request fanout histogram
system.tol2bus.snoop_fanout::0               21072293     98.54%     98.54% # Request fanout histogram
system.tol2bus.snoop_fanout::1                 311337      1.46%    100.00% # Request fanout histogram
system.tol2bus.snoop_fanout::2                      0      0.00%    100.00% # Request fanout histogram
system.tol2bus.snoop_fanout::3                      0      0.00%    100.00% # Request fanout histogram
system.tol2bus.snoop_fanout::4                      0      0.00%    100.00% # Request fanout histogram
system.tol2bus.snoop_fanout::overflows              0      0.00%    100.00% # Request fanout histogram
system.tol2bus.snoop_fanout::min_value              0                       # Request fanout histogram
system.tol2bus.snoop_fanout::max_value              1                       # Request fanout histogram
system.tol2bus.snoop_fanout::total           21383630                       # Request fanout histogram
system.tol2bus.reqLayer0.occupancy        18718265500                       # Layer occupancy (ticks)
system.tol2bus.reqLayer0.utilization              1.1                       # Layer utilization (%)
system.tol2bus.respLayer0.occupancy          57778500                       # Layer occupancy (ticks)
system.tol2bus.respLayer0.utilization             0.0                       # Layer utilization (%)
system.tol2bus.respLayer1.occupancy       21940735500                       # Layer occupancy (ticks)
system.tol2bus.respLayer1.utilization             1.3                       # Layer utilization (%)

---------- End Simulation Statistics   ----------
