
---------- Begin Simulation Statistics ----------
sim_seconds                                  2.007709                       # Number of seconds simulated
sim_ticks                                2007709483500                       # Number of ticks simulated
final_tick                               2007709483500                       # Number of ticks from beginning of simulation (restored from checkpoints and never reset)
sim_freq                                 1000000000000                       # Frequency of simulated ticks
host_inst_rate                                 538771                       # Simulator instruction rate (inst/s)
host_op_rate                                   944265                       # Simulator op (including micro ops) rate (op/s)
host_tick_rate                             2163392035                       # Simulator tick rate (ticks/s)
host_mem_usage                                 822968                       # Number of bytes of host memory used
host_seconds                                   928.04                       # Real time elapsed on the host
sim_insts                                   500000000                       # Number of instructions simulated
sim_ops                                     876313783                       # Number of ops (including micro ops) simulated
system.voltage_domain.voltage                       1                       # Voltage in Volts
system.clk_domain.clock                          1000                       # Clock period in ticks
system.mem_ctrls.bytes_read::cpu.inst           41056                       # Number of bytes read from this memory
system.mem_ctrls.bytes_read::cpu.data       337934656                       # Number of bytes read from this memory
system.mem_ctrls.bytes_read::total          337975712                       # Number of bytes read from this memory
system.mem_ctrls.bytes_inst_read::cpu.inst        41056                       # Number of instructions bytes read from this memory
system.mem_ctrls.bytes_inst_read::total         41056                       # Number of instructions bytes read from this memory
system.mem_ctrls.bytes_written::writebacks     42419136                       # Number of bytes written to this memory
system.mem_ctrls.bytes_written::total        42419136                       # Number of bytes written to this memory
system.mem_ctrls.num_reads::cpu.inst             1283                       # Number of read requests responded to by this memory
system.mem_ctrls.num_reads::cpu.data         10560458                       # Number of read requests responded to by this memory
system.mem_ctrls.num_reads::total            10561741                       # Number of read requests responded to by this memory
system.mem_ctrls.num_writes::writebacks       1325598                       # Number of write requests responded to by this memory
system.mem_ctrls.num_writes::total            1325598                       # Number of write requests responded to by this memory
system.mem_ctrls.bw_read::cpu.inst              20449                       # Total read bandwidth from this memory (bytes/s)
system.mem_ctrls.bw_read::cpu.data          168318504                       # Total read bandwidth from this memory (bytes/s)
system.mem_ctrls.bw_read::total             168338953                       # Total read bandwidth from this memory (bytes/s)
system.mem_ctrls.bw_inst_read::cpu.inst         20449                       # Instruction read bandwidth from this memory (bytes/s)
system.mem_ctrls.bw_inst_read::total            20449                       # Instruction read bandwidth from this memory (bytes/s)
system.mem_ctrls.bw_write::writebacks        21128125                       # Write bandwidth from this memory (bytes/s)
system.mem_ctrls.bw_write::total             21128125                       # Write bandwidth from this memory (bytes/s)
system.mem_ctrls.bw_total::writebacks        21128125                       # Total bandwidth to/from this memory (bytes/s)
system.mem_ctrls.bw_total::cpu.inst             20449                       # Total bandwidth to/from this memory (bytes/s)
system.mem_ctrls.bw_total::cpu.data         168318504                       # Total bandwidth to/from this memory (bytes/s)
system.mem_ctrls.bw_total::total            189467077                       # Total bandwidth to/from this memory (bytes/s)
system.mem_ctrls.readReqs                    10561741                       # Number of read requests accepted
system.mem_ctrls.writeReqs                    1325598                       # Number of write requests accepted
system.mem_ctrls.readBursts                  10561741                       # Number of DRAM read bursts, including those serviced by the write queue
system.mem_ctrls.writeBursts                  1325598                       # Number of DRAM write bursts, including those merged in the write queue
system.mem_ctrls.bytesReadDRAM              674385344                       # Total number of bytes read from DRAM
system.mem_ctrls.bytesReadWrQ                 1566080                       # Total number of bytes read from write queue
system.mem_ctrls.bytesWritten                76958912                       # Total number of bytes written to DRAM
system.mem_ctrls.bytesReadSys               337975712                       # Total read bytes from the system interface side
system.mem_ctrls.bytesWrittenSys             42419136                       # Total written bytes from the system interface side
system.mem_ctrls.servicedByWrQ                  24470                       # Number of DRAM read bursts serviced by the write queue
system.mem_ctrls.mergedWrBursts                123093                       # Number of DRAM write bursts merged with an existing one
system.mem_ctrls.neitherReadNorWriteReqs      9202644                       # Number of requests that are neither read nor write
system.mem_ctrls.perBankRdBursts::0            672073                       # Per bank write bursts
system.mem_ctrls.perBankRdBursts::1            650555                       # Per bank write bursts
system.mem_ctrls.perBankRdBursts::2            652639                       # Per bank write bursts
system.mem_ctrls.perBankRdBursts::3            696684                       # Per bank write bursts
system.mem_ctrls.perBankRdBursts::4            648538                       # Per bank write bursts
system.mem_ctrls.perBankRdBursts::5            644471                       # Per bank write bursts
system.mem_ctrls.perBankRdBursts::6            672296                       # Per bank write bursts
system.mem_ctrls.perBankRdBursts::7            641361                       # Per bank write bursts
system.mem_ctrls.perBankRdBursts::8            646533                       # Per bank write bursts
system.mem_ctrls.perBankRdBursts::9            645504                       # Per bank write bursts
system.mem_ctrls.perBankRdBursts::10           649211                       # Per bank write bursts
system.mem_ctrls.perBankRdBursts::11           655751                       # Per bank write bursts
system.mem_ctrls.perBankRdBursts::12           665980                       # Per bank write bursts
system.mem_ctrls.perBankRdBursts::13           669535                       # Per bank write bursts
system.mem_ctrls.perBankRdBursts::14           660527                       # Per bank write bursts
system.mem_ctrls.perBankRdBursts::15           665613                       # Per bank write bursts
system.mem_ctrls.perBankWrBursts::0             75639                       # Per bank write bursts
system.mem_ctrls.perBankWrBursts::1             74757                       # Per bank write bursts
system.mem_ctrls.perBankWrBursts::2             74862                       # Per bank write bursts
system.mem_ctrls.perBankWrBursts::3             95402                       # Per bank write bursts
system.mem_ctrls.perBankWrBursts::4             76714                       # Per bank write bursts
system.mem_ctrls.perBankWrBursts::5             70099                       # Per bank write bursts
system.mem_ctrls.perBankWrBursts::6             80517                       # Per bank write bursts
system.mem_ctrls.perBankWrBursts::7             69863                       # Per bank write bursts
system.mem_ctrls.perBankWrBursts::8             70504                       # Per bank write bursts
system.mem_ctrls.perBankWrBursts::9             69211                       # Per bank write bursts
system.mem_ctrls.perBankWrBursts::10            69975                       # Per bank write bursts
system.mem_ctrls.perBankWrBursts::11            73541                       # Per bank write bursts
system.mem_ctrls.perBankWrBursts::12            75405                       # Per bank write bursts
system.mem_ctrls.perBankWrBursts::13            75653                       # Per bank write bursts
system.mem_ctrls.perBankWrBursts::14            75015                       # Per bank write bursts
system.mem_ctrls.perBankWrBursts::15            75326                       # Per bank write bursts
system.mem_ctrls.numRdRetry                         0                       # Number of times read queue was full causing retry
system.mem_ctrls.numWrRetry                         0                       # Number of times write queue was full causing retry
system.mem_ctrls.totGap                  2007709200500                       # Total gap between requests
system.mem_ctrls.readPktSize::0                     0                       # Read request sizes (log2)
system.mem_ctrls.readPktSize::1                     0                       # Read request sizes (log2)
system.mem_ctrls.readPktSize::2                     0                       # Read request sizes (log2)
system.mem_ctrls.readPktSize::3                     0                       # Read request sizes (log2)
system.mem_ctrls.readPktSize::4                     0                       # Read request sizes (log2)
system.mem_ctrls.readPktSize::5              10561741                       # Read request sizes (log2)
system.mem_ctrls.readPktSize::6                     0                       # Read request sizes (log2)
system.mem_ctrls.writePktSize::0                    0                       # Write request sizes (log2)
system.mem_ctrls.writePktSize::1                    0                       # Write request sizes (log2)
system.mem_ctrls.writePktSize::2                    0                       # Write request sizes (log2)
system.mem_ctrls.writePktSize::3                    0                       # Write request sizes (log2)
system.mem_ctrls.writePktSize::4                    0                       # Write request sizes (log2)
system.mem_ctrls.writePktSize::5              1325598                       # Write request sizes (log2)
system.mem_ctrls.writePktSize::6                    0                       # Write request sizes (log2)
system.mem_ctrls.rdQLenPdf::0                10537269                       # What read queue length does an incoming req see
system.mem_ctrls.rdQLenPdf::1                       2                       # What read queue length does an incoming req see
system.mem_ctrls.rdQLenPdf::2                       0                       # What read queue length does an incoming req see
system.mem_ctrls.rdQLenPdf::3                       0                       # What read queue length does an incoming req see
system.mem_ctrls.rdQLenPdf::4                       0                       # What read queue length does an incoming req see
system.mem_ctrls.rdQLenPdf::5                       0                       # What read queue length does an incoming req see
system.mem_ctrls.rdQLenPdf::6                       0                       # What read queue length does an incoming req see
system.mem_ctrls.rdQLenPdf::7                       0                       # What read queue length does an incoming req see
system.mem_ctrls.rdQLenPdf::8                       0                       # What read queue length does an incoming req see
system.mem_ctrls.rdQLenPdf::9                       0                       # What read queue length does an incoming req see
system.mem_ctrls.rdQLenPdf::10                      0                       # What read queue length does an incoming req see
system.mem_ctrls.rdQLenPdf::11                      0                       # What read queue length does an incoming req see
system.mem_ctrls.rdQLenPdf::12                      0                       # What read queue length does an incoming req see
system.mem_ctrls.rdQLenPdf::13                      0                       # What read queue length does an incoming req see
system.mem_ctrls.rdQLenPdf::14                      0                       # What read queue length does an incoming req see
system.mem_ctrls.rdQLenPdf::15                      0                       # What read queue length does an incoming req see
system.mem_ctrls.rdQLenPdf::16                      0                       # What read queue length does an incoming req see
system.mem_ctrls.rdQLenPdf::17                      0                       # What read queue length does an incoming req see
system.mem_ctrls.rdQLenPdf::18                      0                       # What read queue length does an incoming req see
system.mem_ctrls.rdQLenPdf::19                      0                       # What read queue length does an incoming req see
system.mem_ctrls.rdQLenPdf::20                      0                       # What read queue length does an incoming req see
system.mem_ctrls.rdQLenPdf::21                      0                       # What read queue length does an incoming req see
system.mem_ctrls.rdQLenPdf::22                      0                       # What read queue length does an incoming req see
system.mem_ctrls.rdQLenPdf::23                      0                       # What read queue length does an incoming req see
system.mem_ctrls.rdQLenPdf::24                      0                       # What read queue length does an incoming req see
system.mem_ctrls.rdQLenPdf::25                      0                       # What read queue length does an incoming req see
system.mem_ctrls.rdQLenPdf::26                      0                       # What read queue length does an incoming req see
system.mem_ctrls.rdQLenPdf::27                      0                       # What read queue length does an incoming req see
system.mem_ctrls.rdQLenPdf::28                      0                       # What read queue length does an incoming req see
system.mem_ctrls.rdQLenPdf::29                      0                       # What read queue length does an incoming req see
system.mem_ctrls.rdQLenPdf::30                      0                       # What read queue length does an incoming req see
system.mem_ctrls.rdQLenPdf::31                      0                       # What read queue length does an incoming req see
system.mem_ctrls.wrQLenPdf::0                       1                       # What write queue length does an incoming req see
system.mem_ctrls.wrQLenPdf::1                       1                       # What write queue length does an incoming req see
system.mem_ctrls.wrQLenPdf::2                       1                       # What write queue length does an incoming req see
system.mem_ctrls.wrQLenPdf::3                       1                       # What write queue length does an incoming req see
system.mem_ctrls.wrQLenPdf::4                       1                       # What write queue length does an incoming req see
system.mem_ctrls.wrQLenPdf::5                       1                       # What write queue length does an incoming req see
system.mem_ctrls.wrQLenPdf::6                       1                       # What write queue length does an incoming req see
system.mem_ctrls.wrQLenPdf::7                       1                       # What write queue length does an incoming req see
system.mem_ctrls.wrQLenPdf::8                       1                       # What write queue length does an incoming req see
system.mem_ctrls.wrQLenPdf::9                       1                       # What write queue length does an incoming req see
system.mem_ctrls.wrQLenPdf::10                      1                       # What write queue length does an incoming req see
system.mem_ctrls.wrQLenPdf::11                      1                       # What write queue length does an incoming req see
system.mem_ctrls.wrQLenPdf::12                      1                       # What write queue length does an incoming req see
system.mem_ctrls.wrQLenPdf::13                      1                       # What write queue length does an incoming req see
system.mem_ctrls.wrQLenPdf::14                      1                       # What write queue length does an incoming req see
system.mem_ctrls.wrQLenPdf::15                  19306                       # What write queue length does an incoming req see
system.mem_ctrls.wrQLenPdf::16                  20226                       # What write queue length does an incoming req see
system.mem_ctrls.wrQLenPdf::17                  72489                       # What write queue length does an incoming req see
system.mem_ctrls.wrQLenPdf::18                  72691                       # What write queue length does an incoming req see
system.mem_ctrls.wrQLenPdf::19                  72687                       # What write queue length does an incoming req see
system.mem_ctrls.wrQLenPdf::20                  72684                       # What write queue length does an incoming req see
system.mem_ctrls.wrQLenPdf::21                  72680                       # What write queue length does an incoming req see
system.mem_ctrls.wrQLenPdf::22                  72684                       # What write queue length does an incoming req see
system.mem_ctrls.wrQLenPdf::23                  72684                       # What write queue length does an incoming req see
system.mem_ctrls.wrQLenPdf::24                  72679                       # What write queue length does an incoming req see
system.mem_ctrls.wrQLenPdf::25                  72774                       # What write queue length does an incoming req see
system.mem_ctrls.wrQLenPdf::26                  72686                       # What write queue length does an incoming req see
system.mem_ctrls.wrQLenPdf::27                  72756                       # What write queue length does an incoming req see
system.mem_ctrls.wrQLenPdf::28                  72715                       # What write queue length does an incoming req see
system.mem_ctrls.wrQLenPdf::29                  72689                       # What write queue length does an incoming req see
system.mem_ctrls.wrQLenPdf::30                  72705                       # What write queue length does an incoming req see
system.mem_ctrls.wrQLenPdf::31                  72677                       # What write queue length does an incoming req see
system.mem_ctrls.wrQLenPdf::32                  72676                       # What write queue length does an incoming req see
system.mem_ctrls.wrQLenPdf::33                      2                       # What write queue length does an incoming req see
system.mem_ctrls.wrQLenPdf::34                      0                       # What write queue length does an incoming req see
system.mem_ctrls.wrQLenPdf::35                      0                       # What write queue length does an incoming req see
system.mem_ctrls.wrQLenPdf::36                      0                       # What write queue length does an incoming req see
system.mem_ctrls.wrQLenPdf::37                      0                       # What write queue length does an incoming req see
system.mem_ctrls.wrQLenPdf::38                      0                       # What write queue length does an incoming req see
system.mem_ctrls.wrQLenPdf::39                      0                       # What write queue length does an incoming req see
system.mem_ctrls.wrQLenPdf::40                      0                       # What write queue length does an incoming req see
system.mem_ctrls.wrQLenPdf::41                      0                       # What write queue length does an incoming req see
system.mem_ctrls.wrQLenPdf::42                      0                       # What write queue length does an incoming req see
system.mem_ctrls.wrQLenPdf::43                      0                       # What write queue length does an incoming req see
system.mem_ctrls.wrQLenPdf::44                      0                       # What write queue length does an incoming req see
system.mem_ctrls.wrQLenPdf::45                      0                       # What write queue length does an incoming req see
system.mem_ctrls.wrQLenPdf::46                      0                       # What write queue length does an incoming req see
system.mem_ctrls.wrQLenPdf::47                      0                       # What write queue length does an incoming req see
system.mem_ctrls.wrQLenPdf::48                      0                       # What write queue length does an incoming req see
system.mem_ctrls.wrQLenPdf::49                      0                       # What write queue length does an incoming req see
system.mem_ctrls.wrQLenPdf::50                      0                       # What write queue length does an incoming req see
system.mem_ctrls.wrQLenPdf::51                      0                       # What write queue length does an incoming req see
system.mem_ctrls.wrQLenPdf::52                      0                       # What write queue length does an incoming req see
system.mem_ctrls.wrQLenPdf::53                      0                       # What write queue length does an incoming req see
system.mem_ctrls.wrQLenPdf::54                      0                       # What write queue length does an incoming req see
system.mem_ctrls.wrQLenPdf::55                      0                       # What write queue length does an incoming req see
system.mem_ctrls.wrQLenPdf::56                      0                       # What write queue length does an incoming req see
system.mem_ctrls.wrQLenPdf::57                      0                       # What write queue length does an incoming req see
system.mem_ctrls.wrQLenPdf::58                      0                       # What write queue length does an incoming req see
system.mem_ctrls.wrQLenPdf::59                      0                       # What write queue length does an incoming req see
system.mem_ctrls.wrQLenPdf::60                      0                       # What write queue length does an incoming req see
system.mem_ctrls.wrQLenPdf::61                      0                       # What write queue length does an incoming req see
system.mem_ctrls.wrQLenPdf::62                      0                       # What write queue length does an incoming req see
system.mem_ctrls.wrQLenPdf::63                      0                       # What write queue length does an incoming req see
system.mem_ctrls.bytesPerActivate::samples      6084300                       # Bytes accessed per row activation
system.mem_ctrls.bytesPerActivate::mean    123.489011                       # Bytes accessed per row activation
system.mem_ctrls.bytesPerActivate::gmean   104.977984                       # Bytes accessed per row activation
system.mem_ctrls.bytesPerActivate::stdev   119.962413                       # Bytes accessed per row activation
system.mem_ctrls.bytesPerActivate::0-127      2270836     37.32%     37.32% # Bytes accessed per row activation
system.mem_ctrls.bytesPerActivate::128-255      3581038     58.86%     96.18% # Bytes accessed per row activation
system.mem_ctrls.bytesPerActivate::256-383        90029      1.48%     97.66% # Bytes accessed per row activation
system.mem_ctrls.bytesPerActivate::384-511        24177      0.40%     98.06% # Bytes accessed per row activation
system.mem_ctrls.bytesPerActivate::512-639        15939      0.26%     98.32% # Bytes accessed per row activation
system.mem_ctrls.bytesPerActivate::640-767        10705      0.18%     98.49% # Bytes accessed per row activation
system.mem_ctrls.bytesPerActivate::768-895        10864      0.18%     98.67% # Bytes accessed per row activation
system.mem_ctrls.bytesPerActivate::896-1023         9109      0.15%     98.82% # Bytes accessed per row activation
system.mem_ctrls.bytesPerActivate::1024-1151        71603      1.18%    100.00% # Bytes accessed per row activation
system.mem_ctrls.bytesPerActivate::total      6084300                       # Bytes accessed per row activation
system.mem_ctrls.rdPerTurnAround::samples        72676                       # Reads before turning the bus around for writes
system.mem_ctrls.rdPerTurnAround::mean     144.989281                       # Reads before turning the bus around for writes
system.mem_ctrls.rdPerTurnAround::gmean     77.175265                       # Reads before turning the bus around for writes
system.mem_ctrls.rdPerTurnAround::stdev    213.408847                       # Reads before turning the bus around for writes
system.mem_ctrls.rdPerTurnAround::0-255         60488     83.23%     83.23% # Reads before turning the bus around for writes
system.mem_ctrls.rdPerTurnAround::256-511         6613      9.10%     92.33% # Reads before turning the bus around for writes
system.mem_ctrls.rdPerTurnAround::512-767         4926      6.78%     99.11% # Reads before turning the bus around for writes
system.mem_ctrls.rdPerTurnAround::768-1023          263      0.36%     99.47% # Reads before turning the bus around for writes
system.mem_ctrls.rdPerTurnAround::1024-1279          142      0.20%     99.66% # Reads before turning the bus around for writes
system.mem_ctrls.rdPerTurnAround::1280-1535           76      0.10%     99.77% # Reads before turning the bus around for writes
system.mem_ctrls.rdPerTurnAround::1536-1791           52      0.07%     99.84% # Reads before turning the bus around for writes
system.mem_ctrls.rdPerTurnAround::1792-2047           33      0.05%     99.89% # Reads before turning the bus around for writes
system.mem_ctrls.rdPerTurnAround::2048-2303           31      0.04%     99.93% # Reads before turning the bus around for writes
system.mem_ctrls.rdPerTurnAround::2304-2559           16      0.02%     99.95% # Reads before turning the bus around for writes
system.mem_ctrls.rdPerTurnAround::2560-2815            8      0.01%     99.96% # Reads before turning the bus around for writes
system.mem_ctrls.rdPerTurnAround::2816-3071           10      0.01%     99.98% # Reads before turning the bus around for writes
system.mem_ctrls.rdPerTurnAround::3072-3327            4      0.01%     99.98% # Reads before turning the bus around for writes
system.mem_ctrls.rdPerTurnAround::3328-3583            1      0.00%     99.98% # Reads before turning the bus around for writes
system.mem_ctrls.rdPerTurnAround::3584-3839            2      0.00%     99.98% # Reads before turning the bus around for writes
system.mem_ctrls.rdPerTurnAround::3840-4095            3      0.00%     99.99% # Reads before turning the bus around for writes
system.mem_ctrls.rdPerTurnAround::4096-4351            1      0.00%     99.99% # Reads before turning the bus around for writes
system.mem_ctrls.rdPerTurnAround::4352-4607            1      0.00%     99.99% # Reads before turning the bus around for writes
system.mem_ctrls.rdPerTurnAround::5120-5375            1      0.00%     99.99% # Reads before turning the bus around for writes
system.mem_ctrls.rdPerTurnAround::5632-5887            1      0.00%     99.99% # Reads before turning the bus around for writes
system.mem_ctrls.rdPerTurnAround::5888-6143            1      0.00%    100.00% # Reads before turning the bus around for writes
system.mem_ctrls.rdPerTurnAround::6400-6655            1      0.00%    100.00% # Reads before turning the bus around for writes
system.mem_ctrls.rdPerTurnAround::6656-6911            1      0.00%    100.00% # Reads before turning the bus around for writes
system.mem_ctrls.rdPerTurnAround::7680-7935            1      0.00%    100.00% # Reads before turning the bus around for writes
system.mem_ctrls.rdPerTurnAround::total         72676                       # Reads before turning the bus around for writes
system.mem_ctrls.wrPerTurnAround::samples        72676                       # Writes before turning the bus around for reads
system.mem_ctrls.wrPerTurnAround::mean      16.545806                       # Writes before turning the bus around for reads
system.mem_ctrls.wrPerTurnAround::gmean     16.522888                       # Writes before turning the bus around for reads
system.mem_ctrls.wrPerTurnAround::stdev      0.886395                       # Writes before turning the bus around for reads
system.mem_ctrls.wrPerTurnAround::16            52437     72.15%     72.15% # Writes before turning the bus around for reads
system.mem_ctrls.wrPerTurnAround::17              925      1.27%     73.42% # Writes before turning the bus around for reads
system.mem_ctrls.wrPerTurnAround::18            19200     26.42%     99.84% # Writes before turning the bus around for reads
system.mem_ctrls.wrPerTurnAround::19              114      0.16%    100.00% # Writes before turning the bus around for reads
system.mem_ctrls.wrPerTurnAround::total         72676                       # Writes before turning the bus around for reads
system.mem_ctrls.totQLat                 164683779250                       # Total ticks spent queuing
system.mem_ctrls.totMemAccLat            362257610500                       # Total ticks spent from burst creation until serviced by the DRAM
system.mem_ctrls.totBusLat                52686355000                       # Total ticks spent in databus transfers
system.mem_ctrls.avgQLat                     15628.69                       # Average queueing delay per DRAM burst
system.mem_ctrls.avgBusLat                    5000.00                       # Average bus latency per DRAM burst
system.mem_ctrls.avgMemAccLat                34378.69                       # Average memory access latency per DRAM burst
system.mem_ctrls.avgRdBW                       335.90                       # Average DRAM read bandwidth in MiByte/s
system.mem_ctrls.avgWrBW                        38.33                       # Average achieved write bandwidth in MiByte/s
system.mem_ctrls.avgRdBWSys                    168.34                       # Average system read bandwidth in MiByte/s
system.mem_ctrls.avgWrBWSys                     21.13                       # Average system write bandwidth in MiByte/s
system.mem_ctrls.peakBW                      12800.00                       # Theoretical peak bandwidth in MiByte/s
system.mem_ctrls.busUtil                         2.92                       # Data bus utilization in percentage
system.mem_ctrls.busUtilRead                     2.62                       # Data bus utilization in percentage for reads
system.mem_ctrls.busUtilWrite                    0.30                       # Data bus utilization in percentage for writes
system.mem_ctrls.avgRdQLen                       1.00                       # Average read queue length when enqueuing
system.mem_ctrls.avgWrQLen                      25.12                       # Average write queue length when enqueuing
system.mem_ctrls.readRowHits                  5146070                       # Number of row buffer hits during reads
system.mem_ctrls.writeRowHits                  509383                       # Number of row buffer hits during writes
system.mem_ctrls.readRowHitRate                 48.84                       # Row buffer hit rate for reads
system.mem_ctrls.writeRowHitRate                42.36                       # Row buffer hit rate for writes
system.mem_ctrls.avgGap                     168894.75                       # Average gap between requests
system.mem_ctrls.pageHitRate                    48.17                       # Row buffer hit rate, read and write combined
system.mem_ctrls_0.actEnergy              23097659760                       # Energy for activate commands per rank (pJ)
system.mem_ctrls_0.preEnergy              12602889750                       # Energy for precharge commands per rank (pJ)
system.mem_ctrls_0.readEnergy             41173204800                       # Energy for read commands per rank (pJ)
system.mem_ctrls_0.writeEnergy             4003687440                       # Energy for write commands per rank (pJ)
system.mem_ctrls_0.refreshEnergy         131133721680                       # Energy for refresh commands per rank (pJ)
system.mem_ctrls_0.actBackEnergy         1098318741165                       # Energy for active background per rank (pJ)
system.mem_ctrls_0.preBackEnergy         241187408250                       # Energy for precharge background per rank (pJ)
system.mem_ctrls_0.totalEnergy           1551517312845                       # Total energy per rank (pJ)
system.mem_ctrls_0.averagePower            772.780296                       # Core power per rank (mW)
system.mem_ctrls_0.memoryStateTime::IDLE 394613539500                       # Time in different power states
system.mem_ctrls_0.memoryStateTime::REF   67041780000                       # Time in different power states
system.mem_ctrls_0.memoryStateTime::PRE_PDN            0                       # Time in different power states
system.mem_ctrls_0.memoryStateTime::ACT  1546053790500                       # Time in different power states
system.mem_ctrls_0.memoryStateTime::ACT_PDN            0                       # Time in different power states
system.mem_ctrls_1.actEnergy              22899648240                       # Energy for activate commands per rank (pJ)
system.mem_ctrls_1.preEnergy              12494847750                       # Energy for precharge commands per rank (pJ)
system.mem_ctrls_1.readEnergy             41017501200                       # Energy for read commands per rank (pJ)
system.mem_ctrls_1.writeEnergy             3788402400                       # Energy for write commands per rank (pJ)
system.mem_ctrls_1.refreshEnergy         131133721680                       # Energy for refresh commands per rank (pJ)
system.mem_ctrls_1.actBackEnergy         1083815879760                       # Energy for active background per rank (pJ)
system.mem_ctrls_1.preBackEnergy         253909216500                       # Energy for precharge background per rank (pJ)
system.mem_ctrls_1.totalEnergy           1549059217530                       # Total energy per rank (pJ)
system.mem_ctrls_1.averagePower            771.555967                       # Core power per rank (mW)
system.mem_ctrls_1.memoryStateTime::IDLE 415507517000                       # Time in different power states
system.mem_ctrls_1.memoryStateTime::REF   67041780000                       # Time in different power states
system.mem_ctrls_1.memoryStateTime::PRE_PDN            0                       # Time in different power states
system.mem_ctrls_1.memoryStateTime::ACT  1525158884250                       # Time in different power states
system.mem_ctrls_1.memoryStateTime::ACT_PDN            0                       # Time in different power states
system.cpu_voltage_domain.voltage                   1                       # Voltage in Volts
system.cpu_clk_domain.clock                       500                       # Clock period in ticks
system.cpu.apic_clk_domain.clock                 8000                       # Clock period in ticks
system.cpu.workload.num_syscalls                  168                       # Number of system calls
system.cpu.numCycles                       4015418967                       # number of cpu cycles simulated
system.cpu.numWorkItemsStarted                      0                       # number of work items this cpu started
system.cpu.numWorkItemsCompleted                    0                       # number of work items this cpu completed
system.cpu.committedInsts                   500000000                       # Number of instructions committed
system.cpu.committedOps                     876313783                       # Number of ops (including micro ops) committed
system.cpu.num_int_alu_accesses             872966680                       # Number of integer alu accesses
system.cpu.num_fp_alu_accesses                2882231                       # Number of float alu accesses
system.cpu.num_func_calls                    11025254                       # number of times a function call or return occured
system.cpu.num_conditional_control_insts     75981009                       # number of instructions that are conditional controls
system.cpu.num_int_insts                    872966680                       # number of integer instructions
system.cpu.num_fp_insts                       2882231                       # number of float instructions
system.cpu.num_int_register_reads          1835046958                       # number of times the integer registers were read
system.cpu.num_int_register_writes          703076418                       # number of times the integer registers were written
system.cpu.num_fp_register_reads              4386063                       # number of times the floating registers were read
system.cpu.num_fp_register_writes             2464405                       # number of times the floating registers were written
system.cpu.num_cc_register_reads            441654667                       # number of times the CC registers were read
system.cpu.num_cc_register_writes           253505512                       # number of times the CC registers were written
system.cpu.num_mem_refs                     293763599                       # number of memory refs
system.cpu.num_load_insts                   221285042                       # Number of load instructions
system.cpu.num_store_insts                   72478557                       # Number of store instructions
system.cpu.num_idle_cycles                          0                       # Number of idle cycles
system.cpu.num_busy_cycles                 4015418967                       # Number of busy cycles
system.cpu.not_idle_fraction                        1                       # Percentage of non-idle cycles
system.cpu.idle_fraction                            0                       # Percentage of idle cycles
system.cpu.Branches                          97901001                       # Number of branches fetched
system.cpu.op_class::No_OpClass                939429      0.11%      0.11% # Class of executed instruction
system.cpu.op_class::IntAlu                 578420254     66.01%     66.11% # Class of executed instruction
system.cpu.op_class::IntMult                   907073      0.10%     66.22% # Class of executed instruction
system.cpu.op_class::IntDiv                        42      0.00%     66.22% # Class of executed instruction
system.cpu.op_class::FloatAdd                 2283386      0.26%     66.48% # Class of executed instruction
system.cpu.op_class::FloatCmp                       0      0.00%     66.48% # Class of executed instruction
system.cpu.op_class::FloatCvt                       0      0.00%     66.48% # Class of executed instruction
system.cpu.op_class::FloatMult                      0      0.00%     66.48% # Class of executed instruction
system.cpu.op_class::FloatDiv                       0      0.00%     66.48% # Class of executed instruction
system.cpu.op_class::FloatSqrt                      0      0.00%     66.48% # Class of executed instruction
system.cpu.op_class::SimdAdd                        0      0.00%     66.48% # Class of executed instruction
system.cpu.op_class::SimdAddAcc                     0      0.00%     66.48% # Class of executed instruction
system.cpu.op_class::SimdAlu                        0      0.00%     66.48% # Class of executed instruction
system.cpu.op_class::SimdCmp                        0      0.00%     66.48% # Class of executed instruction
system.cpu.op_class::SimdCvt                        0      0.00%     66.48% # Class of executed instruction
system.cpu.op_class::SimdMisc                       0      0.00%     66.48% # Class of executed instruction
system.cpu.op_class::SimdMult                       0      0.00%     66.48% # Class of executed instruction
system.cpu.op_class::SimdMultAcc                    0      0.00%     66.48% # Class of executed instruction
system.cpu.op_class::SimdShift                      0      0.00%     66.48% # Class of executed instruction
system.cpu.op_class::SimdShiftAcc                   0      0.00%     66.48% # Class of executed instruction
system.cpu.op_class::SimdSqrt                       0      0.00%     66.48% # Class of executed instruction
system.cpu.op_class::SimdFloatAdd                   0      0.00%     66.48% # Class of executed instruction
system.cpu.op_class::SimdFloatAlu                   0      0.00%     66.48% # Class of executed instruction
system.cpu.op_class::SimdFloatCmp                   0      0.00%     66.48% # Class of executed instruction
system.cpu.op_class::SimdFloatCvt                   0      0.00%     66.48% # Class of executed instruction
system.cpu.op_class::SimdFloatDiv                   0      0.00%     66.48% # Class of executed instruction
system.cpu.op_class::SimdFloatMisc                  0      0.00%     66.48% # Class of executed instruction
system.cpu.op_class::SimdFloatMult                  0      0.00%     66.48% # Class of executed instruction
system.cpu.op_class::SimdFloatMultAcc               0      0.00%     66.48% # Class of executed instruction
system.cpu.op_class::SimdFloatSqrt                  0      0.00%     66.48% # Class of executed instruction
system.cpu.op_class::MemRead                221285042     25.25%     91.73% # Class of executed instruction
system.cpu.op_class::MemWrite                72478557      8.27%    100.00% # Class of executed instruction
system.cpu.op_class::IprAccess                      0      0.00%    100.00% # Class of executed instruction
system.cpu.op_class::InstPrefetch                   0      0.00%    100.00% # Class of executed instruction
system.cpu.op_class::total                  876313783                       # Class of executed instruction
system.cpu.dcache.tags.replacements          20914874                       # number of replacements
system.cpu.dcache.tags.tagsinuse          1023.858117                       # Cycle average of tags in use
system.cpu.dcache.tags.total_refs           272895952                       # Total number of references to valid blocks.
system.cpu.dcache.tags.sampled_refs          20915898                       # Sample count of references to valid blocks.
system.cpu.dcache.tags.avg_refs             13.047298                       # Average number of references to valid blocks.
system.cpu.dcache.tags.warmup_cycle         779861500                       # Cycle when the warmup percentage was hit.
system.cpu.dcache.tags.occ_blocks::cpu.data  1023.858117                       # Average occupied blocks per requestor
system.cpu.dcache.tags.occ_percent::cpu.data     0.999861                       # Average percentage of cache occupancy
system.cpu.dcache.tags.occ_percent::total     0.999861                       # Average percentage of cache occupancy
system.cpu.dcache.tags.occ_task_id_blocks::1024         1024                       # Occupied blocks per task id
system.cpu.dcache.tags.age_task_id_blocks_1024::0            9                       # Occupied blocks per task id
system.cpu.dcache.tags.age_task_id_blocks_1024::1          663                       # Occupied blocks per task id
system.cpu.dcache.tags.age_task_id_blocks_1024::2          352                       # Occupied blocks per task id
system.cpu.dcache.tags.occ_task_id_percent::1024            1                       # Percentage of cache occupancy per task id
system.cpu.dcache.tags.tag_accesses         314727748                       # Number of tag accesses
system.cpu.dcache.tags.data_accesses        314727748                       # Number of data accesses
system.cpu.dcache.ReadReq_hits::cpu.data    201939413                       # number of ReadReq hits
system.cpu.dcache.ReadReq_hits::total       201939413                       # number of ReadReq hits
system.cpu.dcache.WriteReq_hits::cpu.data     70956539                       # number of WriteReq hits
system.cpu.dcache.WriteReq_hits::total       70956539                       # number of WriteReq hits
system.cpu.dcache.demand_hits::cpu.data     272895952                       # number of demand (read+write) hits
system.cpu.dcache.demand_hits::total        272895952                       # number of demand (read+write) hits
system.cpu.dcache.overall_hits::cpu.data    272895952                       # number of overall hits
system.cpu.dcache.overall_hits::total       272895952                       # number of overall hits
system.cpu.dcache.ReadReq_misses::cpu.data     19393877                       # number of ReadReq misses
system.cpu.dcache.ReadReq_misses::total      19393877                       # number of ReadReq misses
system.cpu.dcache.WriteReq_misses::cpu.data      1522021                       # number of WriteReq misses
system.cpu.dcache.WriteReq_misses::total      1522021                       # number of WriteReq misses
system.cpu.dcache.demand_misses::cpu.data     20915898                       # number of demand (read+write) misses
system.cpu.dcache.demand_misses::total       20915898                       # number of demand (read+write) misses
system.cpu.dcache.overall_misses::cpu.data     20915898                       # number of overall misses
system.cpu.dcache.overall_misses::total      20915898                       # number of overall misses
system.cpu.dcache.ReadReq_miss_latency::cpu.data 998562961000                       # number of ReadReq miss cycles
system.cpu.dcache.ReadReq_miss_latency::total 998562961000                       # number of ReadReq miss cycles
system.cpu.dcache.WriteReq_miss_latency::cpu.data  51981745000                       # number of WriteReq miss cycles
system.cpu.dcache.WriteReq_miss_latency::total  51981745000                       # number of WriteReq miss cycles
system.cpu.dcache.demand_miss_latency::cpu.data 1050544706000                       # number of demand (read+write) miss cycles
system.cpu.dcache.demand_miss_latency::total 1050544706000                       # number of demand (read+write) miss cycles
system.cpu.dcache.overall_miss_latency::cpu.data 1050544706000                       # number of overall miss cycles
system.cpu.dcache.overall_miss_latency::total 1050544706000                       # number of overall miss cycles
system.cpu.dcache.ReadReq_accesses::cpu.data    221333290                       # number of ReadReq accesses(hits+misses)
system.cpu.dcache.ReadReq_accesses::total    221333290                       # number of ReadReq accesses(hits+misses)
system.cpu.dcache.WriteReq_accesses::cpu.data     72478560                       # number of WriteReq accesses(hits+misses)
system.cpu.dcache.WriteReq_accesses::total     72478560                       # number of WriteReq accesses(hits+misses)
system.cpu.dcache.demand_accesses::cpu.data    293811850                       # number of demand (read+write) accesses
system.cpu.dcache.demand_accesses::total    293811850                       # number of demand (read+write) accesses
system.cpu.dcache.overall_accesses::cpu.data    293811850                       # number of overall (read+write) accesses
system.cpu.dcache.overall_accesses::total    293811850                       # number of overall (read+write) accesses
system.cpu.dcache.ReadReq_miss_rate::cpu.data     0.087623                       # miss rate for ReadReq accesses
system.cpu.dcache.ReadReq_miss_rate::total     0.087623                       # miss rate for ReadReq accesses
system.cpu.dcache.WriteReq_miss_rate::cpu.data     0.021000                       # miss rate for WriteReq accesses
system.cpu.dcache.WriteReq_miss_rate::total     0.021000                       # miss rate for WriteReq accesses
system.cpu.dcache.demand_miss_rate::cpu.data     0.071188                       # miss rate for demand accesses
system.cpu.dcache.demand_miss_rate::total     0.071188                       # miss rate for demand accesses
system.cpu.dcache.overall_miss_rate::cpu.data     0.071188                       # miss rate for overall accesses
system.cpu.dcache.overall_miss_rate::total     0.071188                       # miss rate for overall accesses
system.cpu.dcache.ReadReq_avg_miss_latency::cpu.data 51488.568325                       # average ReadReq miss latency
system.cpu.dcache.ReadReq_avg_miss_latency::total 51488.568325                       # average ReadReq miss latency
system.cpu.dcache.WriteReq_avg_miss_latency::cpu.data 34153.106297                       # average WriteReq miss latency
system.cpu.dcache.WriteReq_avg_miss_latency::total 34153.106297                       # average WriteReq miss latency
system.cpu.dcache.demand_avg_miss_latency::cpu.data 50227.090704                       # average overall miss latency
system.cpu.dcache.demand_avg_miss_latency::total 50227.090704                       # average overall miss latency
system.cpu.dcache.overall_avg_miss_latency::cpu.data 50227.090704                       # average overall miss latency
system.cpu.dcache.overall_avg_miss_latency::total 50227.090704                       # average overall miss latency
system.cpu.dcache.blocked_cycles::no_mshrs            0                       # number of cycles access was blocked
system.cpu.dcache.blocked_cycles::no_targets            0                       # number of cycles access was blocked
system.cpu.dcache.blocked::no_mshrs                 0                       # number of cycles access was blocked
system.cpu.dcache.blocked::no_targets               0                       # number of cycles access was blocked
system.cpu.dcache.avg_blocked_cycles::no_mshrs          nan                       # average number of cycles each access was blocked
system.cpu.dcache.avg_blocked_cycles::no_targets          nan                       # average number of cycles each access was blocked
system.cpu.dcache.fast_writes                       0                       # number of fast writes performed
system.cpu.dcache.cache_copies                      0                       # number of cache copies performed
system.cpu.dcache.writebacks::writebacks      5752198                       # number of writebacks
system.cpu.dcache.writebacks::total           5752198                       # number of writebacks
system.cpu.dcache.ReadReq_mshr_misses::cpu.data     19393877                       # number of ReadReq MSHR misses
system.cpu.dcache.ReadReq_mshr_misses::total     19393877                       # number of ReadReq MSHR misses
system.cpu.dcache.WriteReq_mshr_misses::cpu.data      1522021                       # number of WriteReq MSHR misses
system.cpu.dcache.WriteReq_mshr_misses::total      1522021                       # number of WriteReq MSHR misses
system.cpu.dcache.demand_mshr_misses::cpu.data     20915898                       # number of demand (read+write) MSHR misses
system.cpu.dcache.demand_mshr_misses::total     20915898                       # number of demand (read+write) MSHR misses
system.cpu.dcache.overall_mshr_misses::cpu.data     20915898                       # number of overall MSHR misses
system.cpu.dcache.overall_mshr_misses::total     20915898                       # number of overall MSHR misses
system.cpu.dcache.ReadReq_mshr_miss_latency::cpu.data 979169084000                       # number of ReadReq MSHR miss cycles
system.cpu.dcache.ReadReq_mshr_miss_latency::total 979169084000                       # number of ReadReq MSHR miss cycles
system.cpu.dcache.WriteReq_mshr_miss_latency::cpu.data  50459724000                       # number of WriteReq MSHR miss cycles
system.cpu.dcache.WriteReq_mshr_miss_latency::total  50459724000                       # number of WriteReq MSHR miss cycles
system.cpu.dcache.demand_mshr_miss_latency::cpu.data 1029628808000                       # number of demand (read+write) MSHR miss cycles
system.cpu.dcache.demand_mshr_miss_latency::total 1029628808000                       # number of demand (read+write) MSHR miss cycles
system.cpu.dcache.overall_mshr_miss_latency::cpu.data 1029628808000                       # number of overall MSHR miss cycles
system.cpu.dcache.overall_mshr_miss_latency::total 1029628808000                       # number of overall MSHR miss cycles
system.cpu.dcache.ReadReq_mshr_miss_rate::cpu.data     0.087623                       # mshr miss rate for ReadReq accesses
system.cpu.dcache.ReadReq_mshr_miss_rate::total     0.087623                       # mshr miss rate for ReadReq accesses
system.cpu.dcache.WriteReq_mshr_miss_rate::cpu.data     0.021000                       # mshr miss rate for WriteReq accesses
system.cpu.dcache.WriteReq_mshr_miss_rate::total     0.021000                       # mshr miss rate for WriteReq accesses
system.cpu.dcache.demand_mshr_miss_rate::cpu.data     0.071188                       # mshr miss rate for demand accesses
system.cpu.dcache.demand_mshr_miss_rate::total     0.071188                       # mshr miss rate for demand accesses
system.cpu.dcache.overall_mshr_miss_rate::cpu.data     0.071188                       # mshr miss rate for overall accesses
system.cpu.dcache.overall_mshr_miss_rate::total     0.071188                       # mshr miss rate for overall accesses
system.cpu.dcache.ReadReq_avg_mshr_miss_latency::cpu.data 50488.568325                       # average ReadReq mshr miss latency
system.cpu.dcache.ReadReq_avg_mshr_miss_latency::total 50488.568325                       # average ReadReq mshr miss latency
system.cpu.dcache.WriteReq_avg_mshr_miss_latency::cpu.data 33153.106297                       # average WriteReq mshr miss latency
system.cpu.dcache.WriteReq_avg_mshr_miss_latency::total 33153.106297                       # average WriteReq mshr miss latency
system.cpu.dcache.demand_avg_mshr_miss_latency::cpu.data 49227.090704                       # average overall mshr miss latency
system.cpu.dcache.demand_avg_mshr_miss_latency::total 49227.090704                       # average overall mshr miss latency
system.cpu.dcache.overall_avg_mshr_miss_latency::cpu.data 49227.090704                       # average overall mshr miss latency
system.cpu.dcache.overall_avg_mshr_miss_latency::total 49227.090704                       # average overall mshr miss latency
system.cpu.dcache.no_allocate_misses                0                       # Number of misses that were no-allocate
system.cpu.dtb_walker_cache.tags.replacements            0                       # number of replacements
system.cpu.dtb_walker_cache.tags.tagsinuse            0                       # Cycle average of tags in use
system.cpu.dtb_walker_cache.tags.total_refs            0                       # Total number of references to valid blocks.
system.cpu.dtb_walker_cache.tags.sampled_refs            0                       # Sample count of references to valid blocks.
system.cpu.dtb_walker_cache.tags.avg_refs          nan                       # Average number of references to valid blocks.
system.cpu.dtb_walker_cache.tags.warmup_cycle            0                       # Cycle when the warmup percentage was hit.
system.cpu.dtb_walker_cache.tags.tag_accesses            0                       # Number of tag accesses
system.cpu.dtb_walker_cache.tags.data_accesses            0                       # Number of data accesses
system.cpu.dtb_walker_cache.blocked_cycles::no_mshrs            0                       # number of cycles access was blocked
system.cpu.dtb_walker_cache.blocked_cycles::no_targets            0                       # number of cycles access was blocked
system.cpu.dtb_walker_cache.blocked::no_mshrs            0                       # number of cycles access was blocked
system.cpu.dtb_walker_cache.blocked::no_targets            0                       # number of cycles access was blocked
system.cpu.dtb_walker_cache.avg_blocked_cycles::no_mshrs          nan                       # average number of cycles each access was blocked
system.cpu.dtb_walker_cache.avg_blocked_cycles::no_targets          nan                       # average number of cycles each access was blocked
system.cpu.dtb_walker_cache.fast_writes             0                       # number of fast writes performed
system.cpu.dtb_walker_cache.cache_copies            0                       # number of cache copies performed
system.cpu.dtb_walker_cache.no_allocate_misses            0                       # Number of misses that were no-allocate
system.cpu.icache.tags.replacements            575423                       # number of replacements
system.cpu.icache.tags.tagsinuse           701.395735                       # Cycle average of tags in use
system.cpu.icache.tags.total_refs           676741799                       # Total number of references to valid blocks.
system.cpu.icache.tags.sampled_refs            576147                       # Sample count of references to valid blocks.
system.cpu.icache.tags.avg_refs           1174.599189                       # Average number of references to valid blocks.
system.cpu.icache.tags.warmup_cycle                 0                       # Cycle when the warmup percentage was hit.
system.cpu.icache.tags.occ_blocks::cpu.inst   701.395735                       # Average occupied blocks per requestor
system.cpu.icache.tags.occ_percent::cpu.inst     0.684957                       # Average percentage of cache occupancy
system.cpu.icache.tags.occ_percent::total     0.684957                       # Average percentage of cache occupancy
system.cpu.icache.tags.occ_task_id_blocks::1024          724                       # Occupied blocks per task id
system.cpu.icache.tags.age_task_id_blocks_1024::4          724                       # Occupied blocks per task id
system.cpu.icache.tags.occ_task_id_percent::1024     0.707031                       # Percentage of cache occupancy per task id
system.cpu.icache.tags.tag_accesses         677894093                       # Number of tag accesses
system.cpu.icache.tags.data_accesses        677894093                       # Number of data accesses
system.cpu.icache.ReadReq_hits::cpu.inst    676741799                       # number of ReadReq hits
system.cpu.icache.ReadReq_hits::total       676741799                       # number of ReadReq hits
system.cpu.icache.demand_hits::cpu.inst     676741799                       # number of demand (read+write) hits
system.cpu.icache.demand_hits::total        676741799                       # number of demand (read+write) hits
system.cpu.icache.overall_hits::cpu.inst    676741799                       # number of overall hits
system.cpu.icache.overall_hits::total       676741799                       # number of overall hits
system.cpu.icache.ReadReq_misses::cpu.inst       576147                       # number of ReadReq misses
system.cpu.icache.ReadReq_misses::total        576147                       # number of ReadReq misses
system.cpu.icache.demand_misses::cpu.inst       576147                       # number of demand (read+write) misses
system.cpu.icache.demand_misses::total         576147                       # number of demand (read+write) misses
system.cpu.icache.overall_misses::cpu.inst       576147                       # number of overall misses
system.cpu.icache.overall_misses::total        576147                       # number of overall misses
system.cpu.icache.ReadReq_miss_latency::cpu.inst   7577179000                       # number of ReadReq miss cycles
system.cpu.icache.ReadReq_miss_latency::total   7577179000                       # number of ReadReq miss cycles
system.cpu.icache.demand_miss_latency::cpu.inst   7577179000                       # number of demand (read+write) miss cycles
system.cpu.icache.demand_miss_latency::total   7577179000                       # number of demand (read+write) miss cycles
system.cpu.icache.overall_miss_latency::cpu.inst   7577179000                       # number of overall miss cycles
system.cpu.icache.overall_miss_latency::total   7577179000                       # number of overall miss cycles
system.cpu.icache.ReadReq_accesses::cpu.inst    677317946                       # number of ReadReq accesses(hits+misses)
system.cpu.icache.ReadReq_accesses::total    677317946                       # number of ReadReq accesses(hits+misses)
system.cpu.icache.demand_accesses::cpu.inst    677317946                       # number of demand (read+write) accesses
system.cpu.icache.demand_accesses::total    677317946                       # number of demand (read+write) accesses
system.cpu.icache.overall_accesses::cpu.inst    677317946                       # number of overall (read+write) accesses
system.cpu.icache.overall_accesses::total    677317946                       # number of overall (read+write) accesses
system.cpu.icache.ReadReq_miss_rate::cpu.inst     0.000851                       # miss rate for ReadReq accesses
system.cpu.icache.ReadReq_miss_rate::total     0.000851                       # miss rate for ReadReq accesses
system.cpu.icache.demand_miss_rate::cpu.inst     0.000851                       # miss rate for demand accesses
system.cpu.icache.demand_miss_rate::total     0.000851                       # miss rate for demand accesses
system.cpu.icache.overall_miss_rate::cpu.inst     0.000851                       # miss rate for overall accesses
system.cpu.icache.overall_miss_rate::total     0.000851                       # miss rate for overall accesses
system.cpu.icache.ReadReq_avg_miss_latency::cpu.inst 13151.468288                       # average ReadReq miss latency
system.cpu.icache.ReadReq_avg_miss_latency::total 13151.468288                       # average ReadReq miss latency
system.cpu.icache.demand_avg_miss_latency::cpu.inst 13151.468288                       # average overall miss latency
system.cpu.icache.demand_avg_miss_latency::total 13151.468288                       # average overall miss latency
system.cpu.icache.overall_avg_miss_latency::cpu.inst 13151.468288                       # average overall miss latency
system.cpu.icache.overall_avg_miss_latency::total 13151.468288                       # average overall miss latency
system.cpu.icache.blocked_cycles::no_mshrs            0                       # number of cycles access was blocked
system.cpu.icache.blocked_cycles::no_targets            0                       # number of cycles access was blocked
system.cpu.icache.blocked::no_mshrs                 0                       # number of cycles access was blocked
system.cpu.icache.blocked::no_targets               0                       # number of cycles access was blocked
system.cpu.icache.avg_blocked_cycles::no_mshrs          nan                       # average number of cycles each access was blocked
system.cpu.icache.avg_blocked_cycles::no_targets          nan                       # average number of cycles each access was blocked
system.cpu.icache.fast_writes                       0                       # number of fast writes performed
system.cpu.icache.cache_copies                      0                       # number of cache copies performed
system.cpu.icache.writebacks::writebacks       575423                       # number of writebacks
system.cpu.icache.writebacks::total            575423                       # number of writebacks
system.cpu.icache.ReadReq_mshr_misses::cpu.inst       576147                       # number of ReadReq MSHR misses
system.cpu.icache.ReadReq_mshr_misses::total       576147                       # number of ReadReq MSHR misses
system.cpu.icache.demand_mshr_misses::cpu.inst       576147                       # number of demand (read+write) MSHR misses
system.cpu.icache.demand_mshr_misses::total       576147                       # number of demand (read+write) MSHR misses
system.cpu.icache.overall_mshr_misses::cpu.inst       576147                       # number of overall MSHR misses
system.cpu.icache.overall_mshr_misses::total       576147                       # number of overall MSHR misses
system.cpu.icache.ReadReq_mshr_miss_latency::cpu.inst   7001032000                       # number of ReadReq MSHR miss cycles
system.cpu.icache.ReadReq_mshr_miss_latency::total   7001032000                       # number of ReadReq MSHR miss cycles
system.cpu.icache.demand_mshr_miss_latency::cpu.inst   7001032000                       # number of demand (read+write) MSHR miss cycles
system.cpu.icache.demand_mshr_miss_latency::total   7001032000                       # number of demand (read+write) MSHR miss cycles
system.cpu.icache.overall_mshr_miss_latency::cpu.inst   7001032000                       # number of overall MSHR miss cycles
system.cpu.icache.overall_mshr_miss_latency::total   7001032000                       # number of overall MSHR miss cycles
system.cpu.icache.ReadReq_mshr_miss_rate::cpu.inst     0.000851                       # mshr miss rate for ReadReq accesses
system.cpu.icache.ReadReq_mshr_miss_rate::total     0.000851                       # mshr miss rate for ReadReq accesses
system.cpu.icache.demand_mshr_miss_rate::cpu.inst     0.000851                       # mshr miss rate for demand accesses
system.cpu.icache.demand_mshr_miss_rate::total     0.000851                       # mshr miss rate for demand accesses
system.cpu.icache.overall_mshr_miss_rate::cpu.inst     0.000851                       # mshr miss rate for overall accesses
system.cpu.icache.overall_mshr_miss_rate::total     0.000851                       # mshr miss rate for overall accesses
system.cpu.icache.ReadReq_avg_mshr_miss_latency::cpu.inst 12151.468288                       # average ReadReq mshr miss latency
system.cpu.icache.ReadReq_avg_mshr_miss_latency::total 12151.468288                       # average ReadReq mshr miss latency
system.cpu.icache.demand_avg_mshr_miss_latency::cpu.inst 12151.468288                       # average overall mshr miss latency
system.cpu.icache.demand_avg_mshr_miss_latency::total 12151.468288                       # average overall mshr miss latency
system.cpu.icache.overall_avg_mshr_miss_latency::cpu.inst 12151.468288                       # average overall mshr miss latency
system.cpu.icache.overall_avg_mshr_miss_latency::total 12151.468288                       # average overall mshr miss latency
system.cpu.icache.no_allocate_misses                0                       # Number of misses that were no-allocate
system.cpu.itb_walker_cache.tags.replacements            0                       # number of replacements
system.cpu.itb_walker_cache.tags.tagsinuse            0                       # Cycle average of tags in use
system.cpu.itb_walker_cache.tags.total_refs            0                       # Total number of references to valid blocks.
system.cpu.itb_walker_cache.tags.sampled_refs            0                       # Sample count of references to valid blocks.
system.cpu.itb_walker_cache.tags.avg_refs          nan                       # Average number of references to valid blocks.
system.cpu.itb_walker_cache.tags.warmup_cycle            0                       # Cycle when the warmup percentage was hit.
system.cpu.itb_walker_cache.tags.tag_accesses            0                       # Number of tag accesses
system.cpu.itb_walker_cache.tags.data_accesses            0                       # Number of data accesses
system.cpu.itb_walker_cache.blocked_cycles::no_mshrs            0                       # number of cycles access was blocked
system.cpu.itb_walker_cache.blocked_cycles::no_targets            0                       # number of cycles access was blocked
system.cpu.itb_walker_cache.blocked::no_mshrs            0                       # number of cycles access was blocked
system.cpu.itb_walker_cache.blocked::no_targets            0                       # number of cycles access was blocked
system.cpu.itb_walker_cache.avg_blocked_cycles::no_mshrs          nan                       # average number of cycles each access was blocked
system.cpu.itb_walker_cache.avg_blocked_cycles::no_targets          nan                       # average number of cycles each access was blocked
system.cpu.itb_walker_cache.fast_writes             0                       # number of fast writes performed
system.cpu.itb_walker_cache.cache_copies            0                       # number of cache copies performed
system.cpu.itb_walker_cache.no_allocate_misses            0                       # Number of misses that were no-allocate
system.l2.tags.replacements                  10616589                       # number of replacements
system.l2.tags.tagsinuse                 32432.129073                       # Cycle average of tags in use
system.l2.tags.total_refs                    30398686                       # Total number of references to valid blocks.
system.l2.tags.sampled_refs                  10649272                       # Sample count of references to valid blocks.
system.l2.tags.avg_refs                      2.854532                       # Average number of references to valid blocks.
system.l2.tags.warmup_cycle              369553922000                       # Cycle when the warmup percentage was hit.
system.l2.tags.occ_blocks::writebacks     6238.276193                       # Average occupied blocks per requestor
system.l2.tags.occ_blocks::cpu.inst          4.266079                       # Average occupied blocks per requestor
system.l2.tags.occ_blocks::cpu.data      26189.586801                       # Average occupied blocks per requestor
system.l2.tags.occ_percent::writebacks       0.190377                       # Average percentage of cache occupancy
system.l2.tags.occ_percent::cpu.inst         0.000130                       # Average percentage of cache occupancy
system.l2.tags.occ_percent::cpu.data         0.799243                       # Average percentage of cache occupancy
system.l2.tags.occ_percent::total            0.989750                       # Average percentage of cache occupancy
system.l2.tags.occ_task_id_blocks::1024         32683                       # Occupied blocks per task id
system.l2.tags.age_task_id_blocks_1024::1          626                       # Occupied blocks per task id
system.l2.tags.age_task_id_blocks_1024::2         4568                       # Occupied blocks per task id
system.l2.tags.age_task_id_blocks_1024::3        18675                       # Occupied blocks per task id
system.l2.tags.age_task_id_blocks_1024::4         8814                       # Occupied blocks per task id
system.l2.tags.occ_task_id_percent::1024     0.997406                       # Percentage of cache occupancy per task id
system.l2.tags.tag_accesses                  55153635                       # Number of tag accesses
system.l2.tags.data_accesses                 55153635                       # Number of data accesses
system.l2.WritebackDirty_hits::writebacks      5752198                       # number of WritebackDirty hits
system.l2.WritebackDirty_hits::total          5752198                       # number of WritebackDirty hits
system.l2.WritebackClean_hits::writebacks       575423                       # number of WritebackClean hits
system.l2.WritebackClean_hits::total           575423                       # number of WritebackClean hits
system.l2.ReadExReq_hits::cpu.data            1061991                       # number of ReadExReq hits
system.l2.ReadExReq_hits::total               1061991                       # number of ReadExReq hits
system.l2.ReadCleanReq_hits::cpu.inst          574864                       # number of ReadCleanReq hits
system.l2.ReadCleanReq_hits::total             574864                       # number of ReadCleanReq hits
system.l2.ReadSharedReq_hits::cpu.data        9293449                       # number of ReadSharedReq hits
system.l2.ReadSharedReq_hits::total           9293449                       # number of ReadSharedReq hits
system.l2.demand_hits::cpu.inst                574864                       # number of demand (read+write) hits
system.l2.demand_hits::cpu.data              10355440                       # number of demand (read+write) hits
system.l2.demand_hits::total                 10930304                       # number of demand (read+write) hits
system.l2.overall_hits::cpu.inst               574864                       # number of overall hits
system.l2.overall_hits::cpu.data             10355440                       # number of overall hits
system.l2.overall_hits::total                10930304                       # number of overall hits
system.l2.ReadExReq_misses::cpu.data           460030                       # number of ReadExReq misses
system.l2.ReadExReq_misses::total              460030                       # number of ReadExReq misses
system.l2.ReadCleanReq_misses::cpu.inst          1283                       # number of ReadCleanReq misses
system.l2.ReadCleanReq_misses::total             1283                       # number of ReadCleanReq misses
system.l2.ReadSharedReq_misses::cpu.data     10100428                       # number of ReadSharedReq misses
system.l2.ReadSharedReq_misses::total        10100428                       # number of ReadSharedReq misses
system.l2.demand_misses::cpu.inst                1283                       # number of demand (read+write) misses
system.l2.demand_misses::cpu.data            10560458                       # number of demand (read+write) misses
system.l2.demand_misses::total               10561741                       # number of demand (read+write) misses
system.l2.overall_misses::cpu.inst               1283                       # number of overall misses
system.l2.overall_misses::cpu.data           10560458                       # number of overall misses
system.l2.overall_misses::total              10561741                       # number of overall misses
system.l2.ReadExReq_miss_latency::cpu.data  37025787000                       # number of ReadExReq miss cycles
system.l2.ReadExReq_miss_latency::total   37025787000                       # number of ReadExReq miss cycles
system.l2.ReadCleanReq_miss_latency::cpu.inst    100739500                       # number of ReadCleanReq miss cycles
system.l2.ReadCleanReq_miss_latency::total    100739500                       # number of ReadCleanReq miss cycles
system.l2.ReadSharedReq_miss_latency::cpu.data 852495653500                       # number of ReadSharedReq miss cycles
system.l2.ReadSharedReq_miss_latency::total 852495653500                       # number of ReadSharedReq miss cycles
system.l2.demand_miss_latency::cpu.inst     100739500                       # number of demand (read+write) miss cycles
system.l2.demand_miss_latency::cpu.data  889521440500                       # number of demand (read+write) miss cycles
system.l2.demand_miss_latency::total     889622180000                       # number of demand (read+write) miss cycles
system.l2.overall_miss_latency::cpu.inst    100739500                       # number of overall miss cycles
system.l2.overall_miss_latency::cpu.data 889521440500                       # number of overall miss cycles
system.l2.overall_miss_latency::total    889622180000                       # number of overall miss cycles
system.l2.WritebackDirty_accesses::writebacks      5752198                       # number of WritebackDirty accesses(hits+misses)
system.l2.WritebackDirty_accesses::total      5752198                       # number of WritebackDirty accesses(hits+misses)
system.l2.WritebackClean_accesses::writebacks       575423                       # number of WritebackClean accesses(hits+misses)
system.l2.WritebackClean_accesses::total       575423                       # number of WritebackClean accesses(hits+misses)
system.l2.ReadExReq_accesses::cpu.data        1522021                       # number of ReadExReq accesses(hits+misses)
system.l2.ReadExReq_accesses::total           1522021                       # number of ReadExReq accesses(hits+misses)
system.l2.ReadCleanReq_accesses::cpu.inst       576147                       # number of ReadCleanReq accesses(hits+misses)
system.l2.ReadCleanReq_accesses::total         576147                       # number of ReadCleanReq accesses(hits+misses)
system.l2.ReadSharedReq_accesses::cpu.data     19393877                       # number of ReadSharedReq accesses(hits+misses)
system.l2.ReadSharedReq_accesses::total      19393877                       # number of ReadSharedReq accesses(hits+misses)
system.l2.demand_accesses::cpu.inst            576147                       # number of demand (read+write) accesses
system.l2.demand_accesses::cpu.data          20915898                       # number of demand (read+write) accesses
system.l2.demand_accesses::total             21492045                       # number of demand (read+write) accesses
system.l2.overall_accesses::cpu.inst           576147                       # number of overall (read+write) accesses
system.l2.overall_accesses::cpu.data         20915898                       # number of overall (read+write) accesses
system.l2.overall_accesses::total            21492045                       # number of overall (read+write) accesses
system.l2.ReadExReq_miss_rate::cpu.data      0.302249                       # miss rate for ReadExReq accesses
system.l2.ReadExReq_miss_rate::total         0.302249                       # miss rate for ReadExReq accesses
system.l2.ReadCleanReq_miss_rate::cpu.inst     0.002227                       # miss rate for ReadCleanReq accesses
system.l2.ReadCleanReq_miss_rate::total      0.002227                       # miss rate for ReadCleanReq accesses
system.l2.ReadSharedReq_miss_rate::cpu.data     0.520805                       # miss rate for ReadSharedReq accesses
system.l2.ReadSharedReq_miss_rate::total     0.520805                       # miss rate for ReadSharedReq accesses
system.l2.demand_miss_rate::cpu.inst         0.002227                       # miss rate for demand accesses
system.l2.demand_miss_rate::cpu.data         0.504901                       # miss rate for demand accesses
system.l2.demand_miss_rate::total            0.491426                       # miss rate for demand accesses
system.l2.overall_miss_rate::cpu.inst        0.002227                       # miss rate for overall accesses
system.l2.overall_miss_rate::cpu.data        0.504901                       # miss rate for overall accesses
system.l2.overall_miss_rate::total           0.491426                       # miss rate for overall accesses
system.l2.ReadExReq_avg_miss_latency::cpu.data 80485.592244                       # average ReadExReq miss latency
system.l2.ReadExReq_avg_miss_latency::total 80485.592244                       # average ReadExReq miss latency
system.l2.ReadCleanReq_avg_miss_latency::cpu.inst 78518.706157                       # average ReadCleanReq miss latency
system.l2.ReadCleanReq_avg_miss_latency::total 78518.706157                       # average ReadCleanReq miss latency
system.l2.ReadSharedReq_avg_miss_latency::cpu.data 84401.933611                       # average ReadSharedReq miss latency
system.l2.ReadSharedReq_avg_miss_latency::total 84401.933611                       # average ReadSharedReq miss latency
system.l2.demand_avg_miss_latency::cpu.inst 78518.706157                       # average overall miss latency
system.l2.demand_avg_miss_latency::cpu.data 84231.331681                       # average overall miss latency
system.l2.demand_avg_miss_latency::total 84230.637733                       # average overall miss latency
system.l2.overall_avg_miss_latency::cpu.inst 78518.706157                       # average overall miss latency
system.l2.overall_avg_miss_latency::cpu.data 84231.331681                       # average overall miss latency
system.l2.overall_avg_miss_latency::total 84230.637733                       # average overall miss latency
system.l2.blocked_cycles::no_mshrs                  0                       # number of cycles access was blocked
system.l2.blocked_cycles::no_targets                0                       # number of cycles access was blocked
system.l2.blocked::no_mshrs                         0                       # number of cycles access was blocked
system.l2.blocked::no_targets                       0                       # number of cycles access was blocked
system.l2.avg_blocked_cycles::no_mshrs            nan                       # average number of cycles each access was blocked
system.l2.avg_blocked_cycles::no_targets          nan                       # average number of cycles each access was blocked
system.l2.fast_writes                               0                       # number of fast writes performed
system.l2.cache_copies                              0                       # number of cache copies performed
system.l2.writebacks::writebacks              1325598                       # number of writebacks
system.l2.writebacks::total                   1325598                       # number of writebacks
system.l2.CleanEvict_mshr_misses::writebacks       410431                       # number of CleanEvict MSHR misses
system.l2.CleanEvict_mshr_misses::total        410431                       # number of CleanEvict MSHR misses
system.l2.ReadExReq_mshr_misses::cpu.data       460030                       # number of ReadExReq MSHR misses
system.l2.ReadExReq_mshr_misses::total         460030                       # number of ReadExReq MSHR misses
system.l2.ReadCleanReq_mshr_misses::cpu.inst         1283                       # number of ReadCleanReq MSHR misses
system.l2.ReadCleanReq_mshr_misses::total         1283                       # number of ReadCleanReq MSHR misses
system.l2.ReadSharedReq_mshr_misses::cpu.data     10100428                       # number of ReadSharedReq MSHR misses
system.l2.ReadSharedReq_mshr_misses::total     10100428                       # number of ReadSharedReq MSHR misses
system.l2.demand_mshr_misses::cpu.inst           1283                       # number of demand (read+write) MSHR misses
system.l2.demand_mshr_misses::cpu.data       10560458                       # number of demand (read+write) MSHR misses
system.l2.demand_mshr_misses::total          10561741                       # number of demand (read+write) MSHR misses
system.l2.overall_mshr_misses::cpu.inst          1283                       # number of overall MSHR misses
system.l2.overall_mshr_misses::cpu.data      10560458                       # number of overall MSHR misses
system.l2.overall_mshr_misses::total         10561741                       # number of overall MSHR misses
system.l2.ReadExReq_mshr_miss_latency::cpu.data  32425487000                       # number of ReadExReq MSHR miss cycles
system.l2.ReadExReq_mshr_miss_latency::total  32425487000                       # number of ReadExReq MSHR miss cycles
system.l2.ReadCleanReq_mshr_miss_latency::cpu.inst     87909500                       # number of ReadCleanReq MSHR miss cycles
system.l2.ReadCleanReq_mshr_miss_latency::total     87909500                       # number of ReadCleanReq MSHR miss cycles
system.l2.ReadSharedReq_mshr_miss_latency::cpu.data 751491373500                       # number of ReadSharedReq MSHR miss cycles
system.l2.ReadSharedReq_mshr_miss_latency::total 751491373500                       # number of ReadSharedReq MSHR miss cycles
system.l2.demand_mshr_miss_latency::cpu.inst     87909500                       # number of demand (read+write) MSHR miss cycles
system.l2.demand_mshr_miss_latency::cpu.data 783916860500                       # number of demand (read+write) MSHR miss cycles
system.l2.demand_mshr_miss_latency::total 784004770000                       # number of demand (read+write) MSHR miss cycles
system.l2.overall_mshr_miss_latency::cpu.inst     87909500                       # number of overall MSHR miss cycles
system.l2.overall_mshr_miss_latency::cpu.data 783916860500                       # number of overall MSHR miss cycles
system.l2.overall_mshr_miss_latency::total 784004770000                       # number of overall MSHR miss cycles
system.l2.CleanEvict_mshr_miss_rate::writebacks          inf                       # mshr miss rate for CleanEvict accesses
system.l2.CleanEvict_mshr_miss_rate::total          inf                       # mshr miss rate for CleanEvict accesses
system.l2.ReadExReq_mshr_miss_rate::cpu.data     0.302249                       # mshr miss rate for ReadExReq accesses
system.l2.ReadExReq_mshr_miss_rate::total     0.302249                       # mshr miss rate for ReadExReq accesses
system.l2.ReadCleanReq_mshr_miss_rate::cpu.inst     0.002227                       # mshr miss rate for ReadCleanReq accesses
system.l2.ReadCleanReq_mshr_miss_rate::total     0.002227                       # mshr miss rate for ReadCleanReq accesses
system.l2.ReadSharedReq_mshr_miss_rate::cpu.data     0.520805                       # mshr miss rate for ReadSharedReq accesses
system.l2.ReadSharedReq_mshr_miss_rate::total     0.520805                       # mshr miss rate for ReadSharedReq accesses
system.l2.demand_mshr_miss_rate::cpu.inst     0.002227                       # mshr miss rate for demand accesses
system.l2.demand_mshr_miss_rate::cpu.data     0.504901                       # mshr miss rate for demand accesses
system.l2.demand_mshr_miss_rate::total       0.491426                       # mshr miss rate for demand accesses
system.l2.overall_mshr_miss_rate::cpu.inst     0.002227                       # mshr miss rate for overall accesses
system.l2.overall_mshr_miss_rate::cpu.data     0.504901                       # mshr miss rate for overall accesses
system.l2.overall_mshr_miss_rate::total      0.491426                       # mshr miss rate for overall accesses
system.l2.ReadExReq_avg_mshr_miss_latency::cpu.data 70485.592244                       # average ReadExReq mshr miss latency
system.l2.ReadExReq_avg_mshr_miss_latency::total 70485.592244                       # average ReadExReq mshr miss latency
system.l2.ReadCleanReq_avg_mshr_miss_latency::cpu.inst 68518.706157                       # average ReadCleanReq mshr miss latency
system.l2.ReadCleanReq_avg_mshr_miss_latency::total 68518.706157                       # average ReadCleanReq mshr miss latency
system.l2.ReadSharedReq_avg_mshr_miss_latency::cpu.data 74401.933611                       # average ReadSharedReq mshr miss latency
system.l2.ReadSharedReq_avg_mshr_miss_latency::total 74401.933611                       # average ReadSharedReq mshr miss latency
system.l2.demand_avg_mshr_miss_latency::cpu.inst 68518.706157                       # average overall mshr miss latency
system.l2.demand_avg_mshr_miss_latency::cpu.data 74231.331681                       # average overall mshr miss latency
system.l2.demand_avg_mshr_miss_latency::total 74230.637733                       # average overall mshr miss latency
system.l2.overall_avg_mshr_miss_latency::cpu.inst 68518.706157                       # average overall mshr miss latency
system.l2.overall_avg_mshr_miss_latency::cpu.data 74231.331681                       # average overall mshr miss latency
system.l2.overall_avg_mshr_miss_latency::total 74230.637733                       # average overall mshr miss latency
system.l2.no_allocate_misses                        0                       # Number of misses that were no-allocate
system.membus.trans_dist::ReadResp           10101711                       # Transaction distribution
system.membus.trans_dist::WritebackDirty      1325598                       # Transaction distribution
system.membus.trans_dist::CleanEvict          9202644                       # Transaction distribution
system.membus.trans_dist::ReadExReq            460030                       # Transaction distribution
system.membus.trans_dist::ReadExResp           460030                       # Transaction distribution
system.membus.trans_dist::ReadSharedReq      10101711                       # Transaction distribution
system.membus.pkt_count_system.l2.mem_side::system.mem_ctrls.port     31651724                       # Packet count per connected master and slave (bytes)
system.membus.pkt_count_system.l2.mem_side::total     31651724                       # Packet count per connected master and slave (bytes)
system.membus.pkt_count::total               31651724                       # Packet count per connected master and slave (bytes)
system.membus.pkt_size_system.l2.mem_side::system.mem_ctrls.port    380394848                       # Cumulative packet size per connected master and slave (bytes)
system.membus.pkt_size_system.l2.mem_side::total    380394848                       # Cumulative packet size per connected master and slave (bytes)
system.membus.pkt_size::total               380394848                       # Cumulative packet size per connected master and slave (bytes)
system.membus.snoops                                0                       # Total snoops (count)
system.membus.snoop_fanout::samples          21089983                       # Request fanout histogram
system.membus.snoop_fanout::mean                    0                       # Request fanout histogram
system.membus.snoop_fanout::stdev                   0                       # Request fanout histogram
system.membus.snoop_fanout::underflows              0      0.00%      0.00% # Request fanout histogram
system.membus.snoop_fanout::0                21089983    100.00%    100.00% # Request fanout histogram
system.membus.snoop_fanout::1                       0      0.00%    100.00% # Request fanout histogram
system.membus.snoop_fanout::overflows               0      0.00%    100.00% # Request fanout histogram
system.membus.snoop_fanout::min_value               0                       # Request fanout histogram
system.membus.snoop_fanout::max_value               0                       # Request fanout histogram
system.membus.snoop_fanout::total            21089983                       # Request fanout histogram
system.membus.reqLayer2.occupancy         23754750500                       # Layer occupancy (ticks)
system.membus.reqLayer2.utilization               1.2                       # Layer utilization (%)
system.membus.respLayer1.occupancy        36474686500                       # Layer occupancy (ticks)
system.membus.respLayer1.utilization              1.8                       # Layer utilization (%)
system.tol2bus.snoop_filter.tot_requests     42982342                       # Total number of requests made to the snoop filter.
system.tol2bus.snoop_filter.hit_single_requests     21490297                       # Number of requests hitting in the snoop filter with a single holder of the requested data.
system.tol2bus.snoop_filter.hit_multi_requests            0                       # Number of requests hitting in the snoop filter with multiple (>1) holders of the requested data.
system.tol2bus.snoop_filter.tot_snoops         498778                       # Total number of snoops made to the snoop filter.
system.tol2bus.snoop_filter.hit_single_snoops       498778                       # Number of snoops hitting in the snoop filter with a single holder of the requested data.
system.tol2bus.snoop_filter.hit_multi_snoops            0                       # Number of snoops hitting in the snoop filter with multiple (>1) holders of the requested data.
system.tol2bus.trans_dist::ReadResp          19970024                       # Transaction distribution
system.tol2bus.trans_dist::WritebackDirty      7077796                       # Transaction distribution
system.tol2bus.trans_dist::WritebackClean       575423                       # Transaction distribution
system.tol2bus.trans_dist::CleanEvict        24453667                       # Transaction distribution
system.tol2bus.trans_dist::ReadExReq          1522021                       # Transaction distribution
system.tol2bus.trans_dist::ReadExResp         1522021                       # Transaction distribution
system.tol2bus.trans_dist::ReadCleanReq        576147                       # Transaction distribution
system.tol2bus.trans_dist::ReadSharedReq     19393877                       # Transaction distribution
system.tol2bus.pkt_count_system.cpu.icache.mem_side::system.l2.cpu_side      1727717                       # Packet count per connected master and slave (bytes)
system.tol2bus.pkt_count_system.cpu.dcache.mem_side::system.l2.cpu_side     62746670                       # Packet count per connected master and slave (bytes)
system.tol2bus.pkt_count::total              64474387                       # Packet count per connected master and slave (bytes)
system.tol2bus.pkt_size_system.cpu.icache.mem_side::system.l2.cpu_side     36850240                       # Cumulative packet size per connected master and slave (bytes)
system.tol2bus.pkt_size_system.cpu.dcache.mem_side::system.l2.cpu_side    853379072                       # Cumulative packet size per connected master and slave (bytes)
system.tol2bus.pkt_size::total              890229312                       # Cumulative packet size per connected master and slave (bytes)
system.tol2bus.snoops                        10616589                       # Total snoops (count)
system.tol2bus.snoop_fanout::samples         32108634                       # Request fanout histogram
system.tol2bus.snoop_fanout::mean            0.015534                       # Request fanout histogram
system.tol2bus.snoop_fanout::stdev           0.123664                       # Request fanout histogram
system.tol2bus.snoop_fanout::underflows             0      0.00%      0.00% # Request fanout histogram
system.tol2bus.snoop_fanout::0               31609856     98.45%     98.45% # Request fanout histogram
system.tol2bus.snoop_fanout::1                 498778      1.55%    100.00% # Request fanout histogram
system.tol2bus.snoop_fanout::2                      0      0.00%    100.00% # Request fanout histogram
system.tol2bus.snoop_fanout::3                      0      0.00%    100.00% # Request fanout histogram
system.tol2bus.snoop_fanout::4                      0      0.00%    100.00% # Request fanout histogram
system.tol2bus.snoop_fanout::overflows              0      0.00%    100.00% # Request fanout histogram
system.tol2bus.snoop_fanout::min_value              0                       # Request fanout histogram
system.tol2bus.snoop_fanout::max_value              1                       # Request fanout histogram
system.tol2bus.snoop_fanout::total           32108634                       # Request fanout histogram
system.tol2bus.reqLayer0.occupancy        24654981500                       # Layer occupancy (ticks)
system.tol2bus.reqLayer0.utilization              1.2                       # Layer utilization (%)
system.tol2bus.respLayer0.occupancy         576147000                       # Layer occupancy (ticks)
system.tol2bus.respLayer0.utilization             0.0                       # Layer utilization (%)
system.tol2bus.respLayer1.occupancy       20915898000                       # Layer occupancy (ticks)
system.tol2bus.respLayer1.utilization             1.0                       # Layer utilization (%)

---------- End Simulation Statistics   ----------
