
---------- Begin Simulation Statistics ----------
sim_seconds                                  0.952557                       # Number of seconds simulated
sim_ticks                                952557118500                       # Number of ticks simulated
final_tick                               952557118500                       # Number of ticks from beginning of simulation (restored from checkpoints and never reset)
sim_freq                                 1000000000000                       # Frequency of simulated ticks
host_inst_rate                                 795650                       # Simulator instruction rate (inst/s)
host_op_rate                                  1026222                       # Simulator op (including micro ops) rate (op/s)
host_tick_rate                             1515803927                       # Simulator tick rate (ticks/s)
host_mem_usage                                 833552                       # Number of bytes of host memory used
host_seconds                                   628.42                       # Real time elapsed on the host
sim_insts                                   500000000                       # Number of instructions simulated
sim_ops                                     644895733                       # Number of ops (including micro ops) simulated
system.voltage_domain.voltage                       1                       # Voltage in Volts
system.clk_domain.clock                          1000                       # Clock period in ticks
system.mem_ctrls.bytes_read::cpu.inst           84992                       # Number of bytes read from this memory
system.mem_ctrls.bytes_read::cpu.data          366016                       # Number of bytes read from this memory
system.mem_ctrls.bytes_read::total             451008                       # Number of bytes read from this memory
system.mem_ctrls.bytes_inst_read::cpu.inst        84992                       # Number of instructions bytes read from this memory
system.mem_ctrls.bytes_inst_read::total         84992                       # Number of instructions bytes read from this memory
system.mem_ctrls.bytes_written::writebacks          960                       # Number of bytes written to this memory
system.mem_ctrls.bytes_written::total             960                       # Number of bytes written to this memory
system.mem_ctrls.num_reads::cpu.inst             1328                       # Number of read requests responded to by this memory
system.mem_ctrls.num_reads::cpu.data             5719                       # Number of read requests responded to by this memory
system.mem_ctrls.num_reads::total                7047                       # Number of read requests responded to by this memory
system.mem_ctrls.num_writes::writebacks            15                       # Number of write requests responded to by this memory
system.mem_ctrls.num_writes::total                 15                       # Number of write requests responded to by this memory
system.mem_ctrls.bw_read::cpu.inst              89225                       # Total read bandwidth from this memory (bytes/s)
system.mem_ctrls.bw_read::cpu.data             384246                       # Total read bandwidth from this memory (bytes/s)
system.mem_ctrls.bw_read::total                473471                       # Total read bandwidth from this memory (bytes/s)
system.mem_ctrls.bw_inst_read::cpu.inst         89225                       # Instruction read bandwidth from this memory (bytes/s)
system.mem_ctrls.bw_inst_read::total            89225                       # Instruction read bandwidth from this memory (bytes/s)
system.mem_ctrls.bw_write::writebacks            1008                       # Write bandwidth from this memory (bytes/s)
system.mem_ctrls.bw_write::total                 1008                       # Write bandwidth from this memory (bytes/s)
system.mem_ctrls.bw_total::writebacks            1008                       # Total bandwidth to/from this memory (bytes/s)
system.mem_ctrls.bw_total::cpu.inst             89225                       # Total bandwidth to/from this memory (bytes/s)
system.mem_ctrls.bw_total::cpu.data            384246                       # Total bandwidth to/from this memory (bytes/s)
system.mem_ctrls.bw_total::total               474479                       # Total bandwidth to/from this memory (bytes/s)
system.mem_ctrls.readReqs                        7047                       # Number of read requests accepted
system.mem_ctrls.writeReqs                         15                       # Number of write requests accepted
system.mem_ctrls.readBursts                      7047                       # Number of DRAM read bursts, including those serviced by the write queue
system.mem_ctrls.writeBursts                       15                       # Number of DRAM write bursts, including those merged in the write queue
system.mem_ctrls.bytesReadDRAM                 450752                       # Total number of bytes read from DRAM
system.mem_ctrls.bytesReadWrQ                     256                       # Total number of bytes read from write queue
system.mem_ctrls.bytesWritten                       0                       # Total number of bytes written to DRAM
system.mem_ctrls.bytesReadSys                  451008                       # Total read bytes from the system interface side
system.mem_ctrls.bytesWrittenSys                  960                       # Total written bytes from the system interface side
system.mem_ctrls.servicedByWrQ                      4                       # Number of DRAM read bursts serviced by the write queue
system.mem_ctrls.mergedWrBursts                     0                       # Number of DRAM write bursts merged with an existing one
system.mem_ctrls.neitherReadNorWriteReqs          302                       # Number of requests that are neither read nor write
system.mem_ctrls.perBankRdBursts::0               315                       # Per bank write bursts
system.mem_ctrls.perBankRdBursts::1               346                       # Per bank write bursts
system.mem_ctrls.perBankRdBursts::2               432                       # Per bank write bursts
system.mem_ctrls.perBankRdBursts::3               318                       # Per bank write bursts
system.mem_ctrls.perBankRdBursts::4               476                       # Per bank write bursts
system.mem_ctrls.perBankRdBursts::5               410                       # Per bank write bursts
system.mem_ctrls.perBankRdBursts::6               341                       # Per bank write bursts
system.mem_ctrls.perBankRdBursts::7               415                       # Per bank write bursts
system.mem_ctrls.perBankRdBursts::8               509                       # Per bank write bursts
system.mem_ctrls.perBankRdBursts::9               514                       # Per bank write bursts
system.mem_ctrls.perBankRdBursts::10              555                       # Per bank write bursts
system.mem_ctrls.perBankRdBursts::11              591                       # Per bank write bursts
system.mem_ctrls.perBankRdBursts::12              493                       # Per bank write bursts
system.mem_ctrls.perBankRdBursts::13              448                       # Per bank write bursts
system.mem_ctrls.perBankRdBursts::14              431                       # Per bank write bursts
system.mem_ctrls.perBankRdBursts::15              449                       # Per bank write bursts
system.mem_ctrls.perBankWrBursts::0                 0                       # Per bank write bursts
system.mem_ctrls.perBankWrBursts::1                 0                       # Per bank write bursts
system.mem_ctrls.perBankWrBursts::2                 0                       # Per bank write bursts
system.mem_ctrls.perBankWrBursts::3                 0                       # Per bank write bursts
system.mem_ctrls.perBankWrBursts::4                 0                       # Per bank write bursts
system.mem_ctrls.perBankWrBursts::5                 0                       # Per bank write bursts
system.mem_ctrls.perBankWrBursts::6                 0                       # Per bank write bursts
system.mem_ctrls.perBankWrBursts::7                 0                       # Per bank write bursts
system.mem_ctrls.perBankWrBursts::8                 0                       # Per bank write bursts
system.mem_ctrls.perBankWrBursts::9                 0                       # Per bank write bursts
system.mem_ctrls.perBankWrBursts::10                0                       # Per bank write bursts
system.mem_ctrls.perBankWrBursts::11                0                       # Per bank write bursts
system.mem_ctrls.perBankWrBursts::12                0                       # Per bank write bursts
system.mem_ctrls.perBankWrBursts::13                0                       # Per bank write bursts
system.mem_ctrls.perBankWrBursts::14                0                       # Per bank write bursts
system.mem_ctrls.perBankWrBursts::15                0                       # Per bank write bursts
system.mem_ctrls.numRdRetry                         0                       # Number of times read queue was full causing retry
system.mem_ctrls.numWrRetry                         0                       # Number of times write queue was full causing retry
system.mem_ctrls.totGap                  339234306500                       # Total gap between requests
system.mem_ctrls.readPktSize::0                     0                       # Read request sizes (log2)
system.mem_ctrls.readPktSize::1                     0                       # Read request sizes (log2)
system.mem_ctrls.readPktSize::2                     0                       # Read request sizes (log2)
system.mem_ctrls.readPktSize::3                     0                       # Read request sizes (log2)
system.mem_ctrls.readPktSize::4                     0                       # Read request sizes (log2)
system.mem_ctrls.readPktSize::5                     0                       # Read request sizes (log2)
system.mem_ctrls.readPktSize::6                  7047                       # Read request sizes (log2)
system.mem_ctrls.writePktSize::0                    0                       # Write request sizes (log2)
system.mem_ctrls.writePktSize::1                    0                       # Write request sizes (log2)
system.mem_ctrls.writePktSize::2                    0                       # Write request sizes (log2)
system.mem_ctrls.writePktSize::3                    0                       # Write request sizes (log2)
system.mem_ctrls.writePktSize::4                    0                       # Write request sizes (log2)
system.mem_ctrls.writePktSize::5                    0                       # Write request sizes (log2)
system.mem_ctrls.writePktSize::6                   15                       # Write request sizes (log2)
system.mem_ctrls.rdQLenPdf::0                    6362                       # What read queue length does an incoming req see
system.mem_ctrls.rdQLenPdf::1                     635                       # What read queue length does an incoming req see
system.mem_ctrls.rdQLenPdf::2                      39                       # What read queue length does an incoming req see
system.mem_ctrls.rdQLenPdf::3                       7                       # What read queue length does an incoming req see
system.mem_ctrls.rdQLenPdf::4                       0                       # What read queue length does an incoming req see
system.mem_ctrls.rdQLenPdf::5                       0                       # What read queue length does an incoming req see
system.mem_ctrls.rdQLenPdf::6                       0                       # What read queue length does an incoming req see
system.mem_ctrls.rdQLenPdf::7                       0                       # What read queue length does an incoming req see
system.mem_ctrls.rdQLenPdf::8                       0                       # What read queue length does an incoming req see
system.mem_ctrls.rdQLenPdf::9                       0                       # What read queue length does an incoming req see
system.mem_ctrls.rdQLenPdf::10                      0                       # What read queue length does an incoming req see
system.mem_ctrls.rdQLenPdf::11                      0                       # What read queue length does an incoming req see
system.mem_ctrls.rdQLenPdf::12                      0                       # What read queue length does an incoming req see
system.mem_ctrls.rdQLenPdf::13                      0                       # What read queue length does an incoming req see
system.mem_ctrls.rdQLenPdf::14                      0                       # What read queue length does an incoming req see
system.mem_ctrls.rdQLenPdf::15                      0                       # What read queue length does an incoming req see
system.mem_ctrls.rdQLenPdf::16                      0                       # What read queue length does an incoming req see
system.mem_ctrls.rdQLenPdf::17                      0                       # What read queue length does an incoming req see
system.mem_ctrls.rdQLenPdf::18                      0                       # What read queue length does an incoming req see
system.mem_ctrls.rdQLenPdf::19                      0                       # What read queue length does an incoming req see
system.mem_ctrls.rdQLenPdf::20                      0                       # What read queue length does an incoming req see
system.mem_ctrls.rdQLenPdf::21                      0                       # What read queue length does an incoming req see
system.mem_ctrls.rdQLenPdf::22                      0                       # What read queue length does an incoming req see
system.mem_ctrls.rdQLenPdf::23                      0                       # What read queue length does an incoming req see
system.mem_ctrls.rdQLenPdf::24                      0                       # What read queue length does an incoming req see
system.mem_ctrls.rdQLenPdf::25                      0                       # What read queue length does an incoming req see
system.mem_ctrls.rdQLenPdf::26                      0                       # What read queue length does an incoming req see
system.mem_ctrls.rdQLenPdf::27                      0                       # What read queue length does an incoming req see
system.mem_ctrls.rdQLenPdf::28                      0                       # What read queue length does an incoming req see
system.mem_ctrls.rdQLenPdf::29                      0                       # What read queue length does an incoming req see
system.mem_ctrls.rdQLenPdf::30                      0                       # What read queue length does an incoming req see
system.mem_ctrls.rdQLenPdf::31                      0                       # What read queue length does an incoming req see
system.mem_ctrls.wrQLenPdf::0                       1                       # What write queue length does an incoming req see
system.mem_ctrls.wrQLenPdf::1                       1                       # What write queue length does an incoming req see
system.mem_ctrls.wrQLenPdf::2                       1                       # What write queue length does an incoming req see
system.mem_ctrls.wrQLenPdf::3                       1                       # What write queue length does an incoming req see
system.mem_ctrls.wrQLenPdf::4                       1                       # What write queue length does an incoming req see
system.mem_ctrls.wrQLenPdf::5                       1                       # What write queue length does an incoming req see
system.mem_ctrls.wrQLenPdf::6                       1                       # What write queue length does an incoming req see
system.mem_ctrls.wrQLenPdf::7                       1                       # What write queue length does an incoming req see
system.mem_ctrls.wrQLenPdf::8                       1                       # What write queue length does an incoming req see
system.mem_ctrls.wrQLenPdf::9                       1                       # What write queue length does an incoming req see
system.mem_ctrls.wrQLenPdf::10                      1                       # What write queue length does an incoming req see
system.mem_ctrls.wrQLenPdf::11                      1                       # What write queue length does an incoming req see
system.mem_ctrls.wrQLenPdf::12                      1                       # What write queue length does an incoming req see
system.mem_ctrls.wrQLenPdf::13                      1                       # What write queue length does an incoming req see
system.mem_ctrls.wrQLenPdf::14                      1                       # What write queue length does an incoming req see
system.mem_ctrls.wrQLenPdf::15                      0                       # What write queue length does an incoming req see
system.mem_ctrls.wrQLenPdf::16                      0                       # What write queue length does an incoming req see
system.mem_ctrls.wrQLenPdf::17                      0                       # What write queue length does an incoming req see
system.mem_ctrls.wrQLenPdf::18                      0                       # What write queue length does an incoming req see
system.mem_ctrls.wrQLenPdf::19                      0                       # What write queue length does an incoming req see
system.mem_ctrls.wrQLenPdf::20                      0                       # What write queue length does an incoming req see
system.mem_ctrls.wrQLenPdf::21                      0                       # What write queue length does an incoming req see
system.mem_ctrls.wrQLenPdf::22                      0                       # What write queue length does an incoming req see
system.mem_ctrls.wrQLenPdf::23                      0                       # What write queue length does an incoming req see
system.mem_ctrls.wrQLenPdf::24                      0                       # What write queue length does an incoming req see
system.mem_ctrls.wrQLenPdf::25                      0                       # What write queue length does an incoming req see
system.mem_ctrls.wrQLenPdf::26                      0                       # What write queue length does an incoming req see
system.mem_ctrls.wrQLenPdf::27                      0                       # What write queue length does an incoming req see
system.mem_ctrls.wrQLenPdf::28                      0                       # What write queue length does an incoming req see
system.mem_ctrls.wrQLenPdf::29                      0                       # What write queue length does an incoming req see
system.mem_ctrls.wrQLenPdf::30                      0                       # What write queue length does an incoming req see
system.mem_ctrls.wrQLenPdf::31                      0                       # What write queue length does an incoming req see
system.mem_ctrls.wrQLenPdf::32                      0                       # What write queue length does an incoming req see
system.mem_ctrls.wrQLenPdf::33                      0                       # What write queue length does an incoming req see
system.mem_ctrls.wrQLenPdf::34                      0                       # What write queue length does an incoming req see
system.mem_ctrls.wrQLenPdf::35                      0                       # What write queue length does an incoming req see
system.mem_ctrls.wrQLenPdf::36                      0                       # What write queue length does an incoming req see
system.mem_ctrls.wrQLenPdf::37                      0                       # What write queue length does an incoming req see
system.mem_ctrls.wrQLenPdf::38                      0                       # What write queue length does an incoming req see
system.mem_ctrls.wrQLenPdf::39                      0                       # What write queue length does an incoming req see
system.mem_ctrls.wrQLenPdf::40                      0                       # What write queue length does an incoming req see
system.mem_ctrls.wrQLenPdf::41                      0                       # What write queue length does an incoming req see
system.mem_ctrls.wrQLenPdf::42                      0                       # What write queue length does an incoming req see
system.mem_ctrls.wrQLenPdf::43                      0                       # What write queue length does an incoming req see
system.mem_ctrls.wrQLenPdf::44                      0                       # What write queue length does an incoming req see
system.mem_ctrls.wrQLenPdf::45                      0                       # What write queue length does an incoming req see
system.mem_ctrls.wrQLenPdf::46                      0                       # What write queue length does an incoming req see
system.mem_ctrls.wrQLenPdf::47                      0                       # What write queue length does an incoming req see
system.mem_ctrls.wrQLenPdf::48                      0                       # What write queue length does an incoming req see
system.mem_ctrls.wrQLenPdf::49                      0                       # What write queue length does an incoming req see
system.mem_ctrls.wrQLenPdf::50                      0                       # What write queue length does an incoming req see
system.mem_ctrls.wrQLenPdf::51                      0                       # What write queue length does an incoming req see
system.mem_ctrls.wrQLenPdf::52                      0                       # What write queue length does an incoming req see
system.mem_ctrls.wrQLenPdf::53                      0                       # What write queue length does an incoming req see
system.mem_ctrls.wrQLenPdf::54                      0                       # What write queue length does an incoming req see
system.mem_ctrls.wrQLenPdf::55                      0                       # What write queue length does an incoming req see
system.mem_ctrls.wrQLenPdf::56                      0                       # What write queue length does an incoming req see
system.mem_ctrls.wrQLenPdf::57                      0                       # What write queue length does an incoming req see
system.mem_ctrls.wrQLenPdf::58                      0                       # What write queue length does an incoming req see
system.mem_ctrls.wrQLenPdf::59                      0                       # What write queue length does an incoming req see
system.mem_ctrls.wrQLenPdf::60                      0                       # What write queue length does an incoming req see
system.mem_ctrls.wrQLenPdf::61                      0                       # What write queue length does an incoming req see
system.mem_ctrls.wrQLenPdf::62                      0                       # What write queue length does an incoming req see
system.mem_ctrls.wrQLenPdf::63                      0                       # What write queue length does an incoming req see
system.mem_ctrls.bytesPerActivate::samples         2472                       # Bytes accessed per row activation
system.mem_ctrls.bytesPerActivate::mean    182.343042                       # Bytes accessed per row activation
system.mem_ctrls.bytesPerActivate::gmean   102.861718                       # Bytes accessed per row activation
system.mem_ctrls.bytesPerActivate::stdev   271.769176                       # Bytes accessed per row activation
system.mem_ctrls.bytesPerActivate::0-127         1792     72.49%     72.49% # Bytes accessed per row activation
system.mem_ctrls.bytesPerActivate::128-255          262     10.60%     83.09% # Bytes accessed per row activation
system.mem_ctrls.bytesPerActivate::256-383           85      3.44%     86.53% # Bytes accessed per row activation
system.mem_ctrls.bytesPerActivate::384-511           63      2.55%     89.08% # Bytes accessed per row activation
system.mem_ctrls.bytesPerActivate::512-639           31      1.25%     90.33% # Bytes accessed per row activation
system.mem_ctrls.bytesPerActivate::640-767           16      0.65%     90.98% # Bytes accessed per row activation
system.mem_ctrls.bytesPerActivate::768-895           30      1.21%     92.19% # Bytes accessed per row activation
system.mem_ctrls.bytesPerActivate::896-1023           17      0.69%     92.88% # Bytes accessed per row activation
system.mem_ctrls.bytesPerActivate::1024-1151          176      7.12%    100.00% # Bytes accessed per row activation
system.mem_ctrls.bytesPerActivate::total         2472                       # Bytes accessed per row activation
system.mem_ctrls.totQLat                     78577000                       # Total ticks spent queuing
system.mem_ctrls.totMemAccLat               210633250                       # Total ticks spent from burst creation until serviced by the DRAM
system.mem_ctrls.totBusLat                   35215000                       # Total ticks spent in databus transfers
system.mem_ctrls.avgQLat                     11156.75                       # Average queueing delay per DRAM burst
system.mem_ctrls.avgBusLat                    5000.00                       # Average bus latency per DRAM burst
system.mem_ctrls.avgMemAccLat                29906.75                       # Average memory access latency per DRAM burst
system.mem_ctrls.avgRdBW                         0.47                       # Average DRAM read bandwidth in MiByte/s
system.mem_ctrls.avgWrBW                         0.00                       # Average achieved write bandwidth in MiByte/s
system.mem_ctrls.avgRdBWSys                      0.47                       # Average system read bandwidth in MiByte/s
system.mem_ctrls.avgWrBWSys                      0.00                       # Average system write bandwidth in MiByte/s
system.mem_ctrls.peakBW                      12800.00                       # Theoretical peak bandwidth in MiByte/s
system.mem_ctrls.busUtil                         0.00                       # Data bus utilization in percentage
system.mem_ctrls.busUtilRead                     0.00                       # Data bus utilization in percentage for reads
system.mem_ctrls.busUtilWrite                    0.00                       # Data bus utilization in percentage for writes
system.mem_ctrls.avgRdQLen                       1.00                       # Average read queue length when enqueuing
system.mem_ctrls.avgWrQLen                      13.56                       # Average write queue length when enqueuing
system.mem_ctrls.readRowHits                     4571                       # Number of row buffer hits during reads
system.mem_ctrls.writeRowHits                       0                       # Number of row buffer hits during writes
system.mem_ctrls.readRowHitRate                 64.90                       # Row buffer hit rate for reads
system.mem_ctrls.writeRowHitRate                 0.00                       # Row buffer hit rate for writes
system.mem_ctrls.avgGap                   48036576.96                       # Average gap between requests
system.mem_ctrls.pageHitRate                    64.76                       # Row buffer hit rate, read and write combined
system.mem_ctrls_0.actEnergy                  8754480                       # Energy for activate commands per rank (pJ)
system.mem_ctrls_0.preEnergy                  4776750                       # Energy for precharge commands per rank (pJ)
system.mem_ctrls_0.readEnergy                23813400                       # Energy for read commands per rank (pJ)
system.mem_ctrls_0.writeEnergy                      0                       # Energy for write commands per rank (pJ)
system.mem_ctrls_0.refreshEnergy          62216213280                       # Energy for refresh commands per rank (pJ)
system.mem_ctrls_0.actBackEnergy          22855789890                       # Energy for active background per rank (pJ)
system.mem_ctrls_0.preBackEnergy         551483760750                       # Energy for precharge background per rank (pJ)
system.mem_ctrls_0.totalEnergy           636593108550                       # Total energy per rank (pJ)
system.mem_ctrls_0.averagePower            668.300984                       # Core power per rank (mW)
system.mem_ctrls_0.memoryStateTime::IDLE 917447982500                       # Time in different power states
system.mem_ctrls_0.memoryStateTime::REF   31807880000                       # Time in different power states
system.mem_ctrls_0.memoryStateTime::PRE_PDN            0                       # Time in different power states
system.mem_ctrls_0.memoryStateTime::ACT    3298650000                       # Time in different power states
system.mem_ctrls_0.memoryStateTime::ACT_PDN            0                       # Time in different power states
system.mem_ctrls_1.actEnergy                  9933840                       # Energy for activate commands per rank (pJ)
system.mem_ctrls_1.preEnergy                  5420250                       # Energy for precharge commands per rank (pJ)
system.mem_ctrls_1.readEnergy                31122000                       # Energy for read commands per rank (pJ)
system.mem_ctrls_1.writeEnergy                      0                       # Energy for write commands per rank (pJ)
system.mem_ctrls_1.refreshEnergy          62216213280                       # Energy for refresh commands per rank (pJ)
system.mem_ctrls_1.actBackEnergy          23095706310                       # Energy for active background per rank (pJ)
system.mem_ctrls_1.preBackEnergy         551273307750                       # Energy for precharge background per rank (pJ)
system.mem_ctrls_1.totalEnergy           636631703430                       # Total energy per rank (pJ)
system.mem_ctrls_1.averagePower            668.341501                       # Core power per rank (mW)
system.mem_ctrls_1.memoryStateTime::IDLE 917096559250                       # Time in different power states
system.mem_ctrls_1.memoryStateTime::REF   31807880000                       # Time in different power states
system.mem_ctrls_1.memoryStateTime::PRE_PDN            0                       # Time in different power states
system.mem_ctrls_1.memoryStateTime::ACT    3650073250                       # Time in different power states
system.mem_ctrls_1.memoryStateTime::ACT_PDN            0                       # Time in different power states
system.cpu_voltage_domain.voltage                   1                       # Voltage in Volts
system.cpu_clk_domain.clock                       500                       # Clock period in ticks
system.cpu.apic_clk_domain.clock                 8000                       # Clock period in ticks
system.cpu.workload.num_syscalls                   35                       # Number of system calls
system.cpu.numCycles                       1905114237                       # number of cpu cycles simulated
system.cpu.numWorkItemsStarted                      0                       # number of work items this cpu started
system.cpu.numWorkItemsCompleted                    0                       # number of work items this cpu completed
system.cpu.committedInsts                   500000000                       # Number of instructions committed
system.cpu.committedOps                     644895733                       # Number of ops (including micro ops) committed
system.cpu.num_int_alu_accesses             625873233                       # Number of integer alu accesses
system.cpu.num_fp_alu_accesses               27676254                       # Number of float alu accesses
system.cpu.num_func_calls                     1531165                       # number of times a function call or return occured
system.cpu.num_conditional_control_insts     25302281                       # number of instructions that are conditional controls
system.cpu.num_int_insts                    625873233                       # number of integer instructions
system.cpu.num_fp_insts                      27676254                       # number of float instructions
system.cpu.num_int_register_reads          1467548657                       # number of times the integer registers were read
system.cpu.num_int_register_writes          569494356                       # number of times the integer registers were written
system.cpu.num_fp_register_reads             21879879                       # number of times the floating registers were read
system.cpu.num_fp_register_writes            23672685                       # number of times the floating registers were written
system.cpu.num_cc_register_reads            187332012                       # number of times the CC registers were read
system.cpu.num_cc_register_writes           260734382                       # number of times the CC registers were written
system.cpu.num_mem_refs                     254894307                       # number of memory refs
system.cpu.num_load_insts                   219204129                       # Number of load instructions
system.cpu.num_store_insts                   35690178                       # Number of store instructions
system.cpu.num_idle_cycles                          0                       # Number of idle cycles
system.cpu.num_busy_cycles                 1905114237                       # Number of busy cycles
system.cpu.not_idle_fraction                        1                       # Percentage of non-idle cycles
system.cpu.idle_fraction                            0                       # Percentage of idle cycles
system.cpu.Branches                          27605108                       # Number of branches fetched
system.cpu.op_class::No_OpClass               1502715      0.23%      0.23% # Class of executed instruction
system.cpu.op_class::IntAlu                 363720567     56.40%     56.63% # Class of executed instruction
system.cpu.op_class::IntMult                   618823      0.10%     56.73% # Class of executed instruction
system.cpu.op_class::IntDiv                   6323450      0.98%     57.71% # Class of executed instruction
system.cpu.op_class::FloatAdd                17835871      2.77%     60.48% # Class of executed instruction
system.cpu.op_class::FloatCmp                       0      0.00%     60.48% # Class of executed instruction
system.cpu.op_class::FloatCvt                       0      0.00%     60.48% # Class of executed instruction
system.cpu.op_class::FloatMult                      0      0.00%     60.48% # Class of executed instruction
system.cpu.op_class::FloatDiv                       0      0.00%     60.48% # Class of executed instruction
system.cpu.op_class::FloatSqrt                      0      0.00%     60.48% # Class of executed instruction
system.cpu.op_class::SimdAdd                        0      0.00%     60.48% # Class of executed instruction
system.cpu.op_class::SimdAddAcc                     0      0.00%     60.48% # Class of executed instruction
system.cpu.op_class::SimdAlu                        0      0.00%     60.48% # Class of executed instruction
system.cpu.op_class::SimdCmp                        0      0.00%     60.48% # Class of executed instruction
system.cpu.op_class::SimdCvt                        0      0.00%     60.48% # Class of executed instruction
system.cpu.op_class::SimdMisc                       0      0.00%     60.48% # Class of executed instruction
system.cpu.op_class::SimdMult                       0      0.00%     60.48% # Class of executed instruction
system.cpu.op_class::SimdMultAcc                    0      0.00%     60.48% # Class of executed instruction
system.cpu.op_class::SimdShift                      0      0.00%     60.48% # Class of executed instruction
system.cpu.op_class::SimdShiftAcc                   0      0.00%     60.48% # Class of executed instruction
system.cpu.op_class::SimdSqrt                       0      0.00%     60.48% # Class of executed instruction
system.cpu.op_class::SimdFloatAdd                   0      0.00%     60.48% # Class of executed instruction
system.cpu.op_class::SimdFloatAlu                   0      0.00%     60.48% # Class of executed instruction
system.cpu.op_class::SimdFloatCmp                   0      0.00%     60.48% # Class of executed instruction
system.cpu.op_class::SimdFloatCvt                   0      0.00%     60.48% # Class of executed instruction
system.cpu.op_class::SimdFloatDiv                   0      0.00%     60.48% # Class of executed instruction
system.cpu.op_class::SimdFloatMisc                  0      0.00%     60.48% # Class of executed instruction
system.cpu.op_class::SimdFloatMult                  0      0.00%     60.48% # Class of executed instruction
system.cpu.op_class::SimdFloatMultAcc               0      0.00%     60.48% # Class of executed instruction
system.cpu.op_class::SimdFloatSqrt                  0      0.00%     60.48% # Class of executed instruction
system.cpu.op_class::MemRead                219204129     33.99%     94.47% # Class of executed instruction
system.cpu.op_class::MemWrite                35690178      5.53%    100.00% # Class of executed instruction
system.cpu.op_class::IprAccess                      0      0.00%    100.00% # Class of executed instruction
system.cpu.op_class::InstPrefetch                   0      0.00%    100.00% # Class of executed instruction
system.cpu.op_class::total                  644895733                       # Class of executed instruction
system.cpu.dcache.tags.replacements            107280                       # number of replacements
system.cpu.dcache.tags.tagsinuse          2044.817866                       # Cycle average of tags in use
system.cpu.dcache.tags.total_refs           254785523                       # Total number of references to valid blocks.
system.cpu.dcache.tags.sampled_refs            109328                       # Sample count of references to valid blocks.
system.cpu.dcache.tags.avg_refs           2330.469075                       # Average number of references to valid blocks.
system.cpu.dcache.tags.warmup_cycle        8191653500                       # Cycle when the warmup percentage was hit.
system.cpu.dcache.tags.occ_blocks::cpu.data  2044.817866                       # Average occupied blocks per requestor
system.cpu.dcache.tags.occ_percent::cpu.data     0.998446                       # Average percentage of cache occupancy
system.cpu.dcache.tags.occ_percent::total     0.998446                       # Average percentage of cache occupancy
system.cpu.dcache.tags.occ_task_id_blocks::1024         2048                       # Occupied blocks per task id
system.cpu.dcache.tags.age_task_id_blocks_1024::1            1                       # Occupied blocks per task id
system.cpu.dcache.tags.age_task_id_blocks_1024::2           12                       # Occupied blocks per task id
system.cpu.dcache.tags.age_task_id_blocks_1024::3          789                       # Occupied blocks per task id
system.cpu.dcache.tags.age_task_id_blocks_1024::4         1246                       # Occupied blocks per task id
system.cpu.dcache.tags.occ_task_id_percent::1024            1                       # Percentage of cache occupancy per task id
system.cpu.dcache.tags.tag_accesses        2039268136                       # Number of tag accesses
system.cpu.dcache.tags.data_accesses       2039268136                       # Number of data accesses
system.cpu.dcache.ReadReq_hits::cpu.data    219175301                       # number of ReadReq hits
system.cpu.dcache.ReadReq_hits::total       219175301                       # number of ReadReq hits
system.cpu.dcache.WriteReq_hits::cpu.data     35608515                       # number of WriteReq hits
system.cpu.dcache.WriteReq_hits::total       35608515                       # number of WriteReq hits
system.cpu.dcache.SoftPFReq_hits::cpu.data         1707                       # number of SoftPFReq hits
system.cpu.dcache.SoftPFReq_hits::total          1707                       # number of SoftPFReq hits
system.cpu.dcache.demand_hits::cpu.data     254783816                       # number of demand (read+write) hits
system.cpu.dcache.demand_hits::total        254783816                       # number of demand (read+write) hits
system.cpu.dcache.overall_hits::cpu.data    254785523                       # number of overall hits
system.cpu.dcache.overall_hits::total       254785523                       # number of overall hits
system.cpu.dcache.ReadReq_misses::cpu.data        23209                       # number of ReadReq misses
system.cpu.dcache.ReadReq_misses::total         23209                       # number of ReadReq misses
system.cpu.dcache.WriteReq_misses::cpu.data        81708                       # number of WriteReq misses
system.cpu.dcache.WriteReq_misses::total        81708                       # number of WriteReq misses
system.cpu.dcache.SoftPFReq_misses::cpu.data         4411                       # number of SoftPFReq misses
system.cpu.dcache.SoftPFReq_misses::total         4411                       # number of SoftPFReq misses
system.cpu.dcache.demand_misses::cpu.data       104917                       # number of demand (read+write) misses
system.cpu.dcache.demand_misses::total         104917                       # number of demand (read+write) misses
system.cpu.dcache.overall_misses::cpu.data       109328                       # number of overall misses
system.cpu.dcache.overall_misses::total        109328                       # number of overall misses
system.cpu.dcache.ReadReq_miss_latency::cpu.data    346379000                       # number of ReadReq miss cycles
system.cpu.dcache.ReadReq_miss_latency::total    346379000                       # number of ReadReq miss cycles
system.cpu.dcache.WriteReq_miss_latency::cpu.data   1333689500                       # number of WriteReq miss cycles
system.cpu.dcache.WriteReq_miss_latency::total   1333689500                       # number of WriteReq miss cycles
system.cpu.dcache.demand_miss_latency::cpu.data   1680068500                       # number of demand (read+write) miss cycles
system.cpu.dcache.demand_miss_latency::total   1680068500                       # number of demand (read+write) miss cycles
system.cpu.dcache.overall_miss_latency::cpu.data   1680068500                       # number of overall miss cycles
system.cpu.dcache.overall_miss_latency::total   1680068500                       # number of overall miss cycles
system.cpu.dcache.ReadReq_accesses::cpu.data    219198510                       # number of ReadReq accesses(hits+misses)
system.cpu.dcache.ReadReq_accesses::total    219198510                       # number of ReadReq accesses(hits+misses)
system.cpu.dcache.WriteReq_accesses::cpu.data     35690223                       # number of WriteReq accesses(hits+misses)
system.cpu.dcache.WriteReq_accesses::total     35690223                       # number of WriteReq accesses(hits+misses)
system.cpu.dcache.SoftPFReq_accesses::cpu.data         6118                       # number of SoftPFReq accesses(hits+misses)
system.cpu.dcache.SoftPFReq_accesses::total         6118                       # number of SoftPFReq accesses(hits+misses)
system.cpu.dcache.demand_accesses::cpu.data    254888733                       # number of demand (read+write) accesses
system.cpu.dcache.demand_accesses::total    254888733                       # number of demand (read+write) accesses
system.cpu.dcache.overall_accesses::cpu.data    254894851                       # number of overall (read+write) accesses
system.cpu.dcache.overall_accesses::total    254894851                       # number of overall (read+write) accesses
system.cpu.dcache.ReadReq_miss_rate::cpu.data     0.000106                       # miss rate for ReadReq accesses
system.cpu.dcache.ReadReq_miss_rate::total     0.000106                       # miss rate for ReadReq accesses
system.cpu.dcache.WriteReq_miss_rate::cpu.data     0.002289                       # miss rate for WriteReq accesses
system.cpu.dcache.WriteReq_miss_rate::total     0.002289                       # miss rate for WriteReq accesses
system.cpu.dcache.SoftPFReq_miss_rate::cpu.data     0.720987                       # miss rate for SoftPFReq accesses
system.cpu.dcache.SoftPFReq_miss_rate::total     0.720987                       # miss rate for SoftPFReq accesses
system.cpu.dcache.demand_miss_rate::cpu.data     0.000412                       # miss rate for demand accesses
system.cpu.dcache.demand_miss_rate::total     0.000412                       # miss rate for demand accesses
system.cpu.dcache.overall_miss_rate::cpu.data     0.000429                       # miss rate for overall accesses
system.cpu.dcache.overall_miss_rate::total     0.000429                       # miss rate for overall accesses
system.cpu.dcache.ReadReq_avg_miss_latency::cpu.data 14924.339696                       # average ReadReq miss latency
system.cpu.dcache.ReadReq_avg_miss_latency::total 14924.339696                       # average ReadReq miss latency
system.cpu.dcache.WriteReq_avg_miss_latency::cpu.data 16322.630587                       # average WriteReq miss latency
system.cpu.dcache.WriteReq_avg_miss_latency::total 16322.630587                       # average WriteReq miss latency
system.cpu.dcache.demand_avg_miss_latency::cpu.data 16013.310522                       # average overall miss latency
system.cpu.dcache.demand_avg_miss_latency::total 16013.310522                       # average overall miss latency
system.cpu.dcache.overall_avg_miss_latency::cpu.data 15367.229804                       # average overall miss latency
system.cpu.dcache.overall_avg_miss_latency::total 15367.229804                       # average overall miss latency
system.cpu.dcache.blocked_cycles::no_mshrs        12590                       # number of cycles access was blocked
system.cpu.dcache.blocked_cycles::no_targets            0                       # number of cycles access was blocked
system.cpu.dcache.blocked::no_mshrs               486                       # number of cycles access was blocked
system.cpu.dcache.blocked::no_targets               0                       # number of cycles access was blocked
system.cpu.dcache.avg_blocked_cycles::no_mshrs    25.905350                       # average number of cycles each access was blocked
system.cpu.dcache.avg_blocked_cycles::no_targets          nan                       # average number of cycles each access was blocked
system.cpu.dcache.fast_writes                       0                       # number of fast writes performed
system.cpu.dcache.cache_copies                      0                       # number of cache copies performed
system.cpu.dcache.writebacks::writebacks       105095                       # number of writebacks
system.cpu.dcache.writebacks::total            105095                       # number of writebacks
system.cpu.dcache.ReadReq_mshr_misses::cpu.data        23209                       # number of ReadReq MSHR misses
system.cpu.dcache.ReadReq_mshr_misses::total        23209                       # number of ReadReq MSHR misses
system.cpu.dcache.WriteReq_mshr_misses::cpu.data        81708                       # number of WriteReq MSHR misses
system.cpu.dcache.WriteReq_mshr_misses::total        81708                       # number of WriteReq MSHR misses
system.cpu.dcache.SoftPFReq_mshr_misses::cpu.data         4411                       # number of SoftPFReq MSHR misses
system.cpu.dcache.SoftPFReq_mshr_misses::total         4411                       # number of SoftPFReq MSHR misses
system.cpu.dcache.demand_mshr_misses::cpu.data       104917                       # number of demand (read+write) MSHR misses
system.cpu.dcache.demand_mshr_misses::total       104917                       # number of demand (read+write) MSHR misses
system.cpu.dcache.overall_mshr_misses::cpu.data       109328                       # number of overall MSHR misses
system.cpu.dcache.overall_mshr_misses::total       109328                       # number of overall MSHR misses
system.cpu.dcache.ReadReq_mshr_miss_latency::cpu.data    323170000                       # number of ReadReq MSHR miss cycles
system.cpu.dcache.ReadReq_mshr_miss_latency::total    323170000                       # number of ReadReq MSHR miss cycles
system.cpu.dcache.WriteReq_mshr_miss_latency::cpu.data   1251981500                       # number of WriteReq MSHR miss cycles
system.cpu.dcache.WriteReq_mshr_miss_latency::total   1251981500                       # number of WriteReq MSHR miss cycles
system.cpu.dcache.SoftPFReq_mshr_miss_latency::cpu.data    138515498                       # number of SoftPFReq MSHR miss cycles
system.cpu.dcache.SoftPFReq_mshr_miss_latency::total    138515498                       # number of SoftPFReq MSHR miss cycles
system.cpu.dcache.demand_mshr_miss_latency::cpu.data   1575151500                       # number of demand (read+write) MSHR miss cycles
system.cpu.dcache.demand_mshr_miss_latency::total   1575151500                       # number of demand (read+write) MSHR miss cycles
system.cpu.dcache.overall_mshr_miss_latency::cpu.data   1713666998                       # number of overall MSHR miss cycles
system.cpu.dcache.overall_mshr_miss_latency::total   1713666998                       # number of overall MSHR miss cycles
system.cpu.dcache.ReadReq_mshr_miss_rate::cpu.data     0.000106                       # mshr miss rate for ReadReq accesses
system.cpu.dcache.ReadReq_mshr_miss_rate::total     0.000106                       # mshr miss rate for ReadReq accesses
system.cpu.dcache.WriteReq_mshr_miss_rate::cpu.data     0.002289                       # mshr miss rate for WriteReq accesses
system.cpu.dcache.WriteReq_mshr_miss_rate::total     0.002289                       # mshr miss rate for WriteReq accesses
system.cpu.dcache.SoftPFReq_mshr_miss_rate::cpu.data     0.720987                       # mshr miss rate for SoftPFReq accesses
system.cpu.dcache.SoftPFReq_mshr_miss_rate::total     0.720987                       # mshr miss rate for SoftPFReq accesses
system.cpu.dcache.demand_mshr_miss_rate::cpu.data     0.000412                       # mshr miss rate for demand accesses
system.cpu.dcache.demand_mshr_miss_rate::total     0.000412                       # mshr miss rate for demand accesses
system.cpu.dcache.overall_mshr_miss_rate::cpu.data     0.000429                       # mshr miss rate for overall accesses
system.cpu.dcache.overall_mshr_miss_rate::total     0.000429                       # mshr miss rate for overall accesses
system.cpu.dcache.ReadReq_avg_mshr_miss_latency::cpu.data 13924.339696                       # average ReadReq mshr miss latency
system.cpu.dcache.ReadReq_avg_mshr_miss_latency::total 13924.339696                       # average ReadReq mshr miss latency
system.cpu.dcache.WriteReq_avg_mshr_miss_latency::cpu.data 15322.630587                       # average WriteReq mshr miss latency
system.cpu.dcache.WriteReq_avg_mshr_miss_latency::total 15322.630587                       # average WriteReq mshr miss latency
system.cpu.dcache.SoftPFReq_avg_mshr_miss_latency::cpu.data 31402.289277                       # average SoftPFReq mshr miss latency
system.cpu.dcache.SoftPFReq_avg_mshr_miss_latency::total 31402.289277                       # average SoftPFReq mshr miss latency
system.cpu.dcache.demand_avg_mshr_miss_latency::cpu.data 15013.310522                       # average overall mshr miss latency
system.cpu.dcache.demand_avg_mshr_miss_latency::total 15013.310522                       # average overall mshr miss latency
system.cpu.dcache.overall_avg_mshr_miss_latency::cpu.data 15674.548130                       # average overall mshr miss latency
system.cpu.dcache.overall_avg_mshr_miss_latency::total 15674.548130                       # average overall mshr miss latency
system.cpu.dcache.no_allocate_misses                0                       # Number of misses that were no-allocate
system.cpu.dtb_walker_cache.tags.replacements            0                       # number of replacements
system.cpu.dtb_walker_cache.tags.tagsinuse            0                       # Cycle average of tags in use
system.cpu.dtb_walker_cache.tags.total_refs            0                       # Total number of references to valid blocks.
system.cpu.dtb_walker_cache.tags.sampled_refs            0                       # Sample count of references to valid blocks.
system.cpu.dtb_walker_cache.tags.avg_refs          nan                       # Average number of references to valid blocks.
system.cpu.dtb_walker_cache.tags.warmup_cycle            0                       # Cycle when the warmup percentage was hit.
system.cpu.dtb_walker_cache.tags.tag_accesses            0                       # Number of tag accesses
system.cpu.dtb_walker_cache.tags.data_accesses            0                       # Number of data accesses
system.cpu.dtb_walker_cache.blocked_cycles::no_mshrs            0                       # number of cycles access was blocked
system.cpu.dtb_walker_cache.blocked_cycles::no_targets            0                       # number of cycles access was blocked
system.cpu.dtb_walker_cache.blocked::no_mshrs            0                       # number of cycles access was blocked
system.cpu.dtb_walker_cache.blocked::no_targets            0                       # number of cycles access was blocked
system.cpu.dtb_walker_cache.avg_blocked_cycles::no_mshrs          nan                       # average number of cycles each access was blocked
system.cpu.dtb_walker_cache.avg_blocked_cycles::no_targets          nan                       # average number of cycles each access was blocked
system.cpu.dtb_walker_cache.fast_writes             0                       # number of fast writes performed
system.cpu.dtb_walker_cache.cache_copies            0                       # number of cache copies performed
system.cpu.dtb_walker_cache.no_allocate_misses            0                       # Number of misses that were no-allocate
system.cpu.icache.tags.replacements               897                       # number of replacements
system.cpu.icache.tags.tagsinuse           511.974434                       # Cycle average of tags in use
system.cpu.icache.tags.total_refs           695976656                       # Total number of references to valid blocks.
system.cpu.icache.tags.sampled_refs              1409                       # Sample count of references to valid blocks.
system.cpu.icache.tags.avg_refs          493950.784954                       # Average number of references to valid blocks.
system.cpu.icache.tags.warmup_cycle         631315500                       # Cycle when the warmup percentage was hit.
system.cpu.icache.tags.occ_blocks::cpu.inst   511.974434                       # Average occupied blocks per requestor
system.cpu.icache.tags.occ_percent::cpu.inst     0.999950                       # Average percentage of cache occupancy
system.cpu.icache.tags.occ_percent::total     0.999950                       # Average percentage of cache occupancy
system.cpu.icache.tags.occ_task_id_blocks::1024          512                       # Occupied blocks per task id
system.cpu.icache.tags.age_task_id_blocks_1024::4          512                       # Occupied blocks per task id
system.cpu.icache.tags.occ_task_id_percent::1024            1                       # Percentage of cache occupancy per task id
system.cpu.icache.tags.tag_accesses        5567825929                       # Number of tag accesses
system.cpu.icache.tags.data_accesses       5567825929                       # Number of data accesses
system.cpu.icache.ReadReq_hits::cpu.inst    695976656                       # number of ReadReq hits
system.cpu.icache.ReadReq_hits::total       695976656                       # number of ReadReq hits
system.cpu.icache.demand_hits::cpu.inst     695976656                       # number of demand (read+write) hits
system.cpu.icache.demand_hits::total        695976656                       # number of demand (read+write) hits
system.cpu.icache.overall_hits::cpu.inst    695976656                       # number of overall hits
system.cpu.icache.overall_hits::total       695976656                       # number of overall hits
system.cpu.icache.ReadReq_misses::cpu.inst         1409                       # number of ReadReq misses
system.cpu.icache.ReadReq_misses::total          1409                       # number of ReadReq misses
system.cpu.icache.demand_misses::cpu.inst         1409                       # number of demand (read+write) misses
system.cpu.icache.demand_misses::total           1409                       # number of demand (read+write) misses
system.cpu.icache.overall_misses::cpu.inst         1409                       # number of overall misses
system.cpu.icache.overall_misses::total          1409                       # number of overall misses
system.cpu.icache.ReadReq_miss_latency::cpu.inst    105173500                       # number of ReadReq miss cycles
system.cpu.icache.ReadReq_miss_latency::total    105173500                       # number of ReadReq miss cycles
system.cpu.icache.demand_miss_latency::cpu.inst    105173500                       # number of demand (read+write) miss cycles
system.cpu.icache.demand_miss_latency::total    105173500                       # number of demand (read+write) miss cycles
system.cpu.icache.overall_miss_latency::cpu.inst    105173500                       # number of overall miss cycles
system.cpu.icache.overall_miss_latency::total    105173500                       # number of overall miss cycles
system.cpu.icache.ReadReq_accesses::cpu.inst    695978065                       # number of ReadReq accesses(hits+misses)
system.cpu.icache.ReadReq_accesses::total    695978065                       # number of ReadReq accesses(hits+misses)
system.cpu.icache.demand_accesses::cpu.inst    695978065                       # number of demand (read+write) accesses
system.cpu.icache.demand_accesses::total    695978065                       # number of demand (read+write) accesses
system.cpu.icache.overall_accesses::cpu.inst    695978065                       # number of overall (read+write) accesses
system.cpu.icache.overall_accesses::total    695978065                       # number of overall (read+write) accesses
system.cpu.icache.ReadReq_miss_rate::cpu.inst     0.000002                       # miss rate for ReadReq accesses
system.cpu.icache.ReadReq_miss_rate::total     0.000002                       # miss rate for ReadReq accesses
system.cpu.icache.demand_miss_rate::cpu.inst     0.000002                       # miss rate for demand accesses
system.cpu.icache.demand_miss_rate::total     0.000002                       # miss rate for demand accesses
system.cpu.icache.overall_miss_rate::cpu.inst     0.000002                       # miss rate for overall accesses
system.cpu.icache.overall_miss_rate::total     0.000002                       # miss rate for overall accesses
system.cpu.icache.ReadReq_avg_miss_latency::cpu.inst 74644.073811                       # average ReadReq miss latency
system.cpu.icache.ReadReq_avg_miss_latency::total 74644.073811                       # average ReadReq miss latency
system.cpu.icache.demand_avg_miss_latency::cpu.inst 74644.073811                       # average overall miss latency
system.cpu.icache.demand_avg_miss_latency::total 74644.073811                       # average overall miss latency
system.cpu.icache.overall_avg_miss_latency::cpu.inst 74644.073811                       # average overall miss latency
system.cpu.icache.overall_avg_miss_latency::total 74644.073811                       # average overall miss latency
system.cpu.icache.blocked_cycles::no_mshrs            0                       # number of cycles access was blocked
system.cpu.icache.blocked_cycles::no_targets            0                       # number of cycles access was blocked
system.cpu.icache.blocked::no_mshrs                 0                       # number of cycles access was blocked
system.cpu.icache.blocked::no_targets               0                       # number of cycles access was blocked
system.cpu.icache.avg_blocked_cycles::no_mshrs          nan                       # average number of cycles each access was blocked
system.cpu.icache.avg_blocked_cycles::no_targets          nan                       # average number of cycles each access was blocked
system.cpu.icache.fast_writes                       0                       # number of fast writes performed
system.cpu.icache.cache_copies                      0                       # number of cache copies performed
system.cpu.icache.writebacks::writebacks          897                       # number of writebacks
system.cpu.icache.writebacks::total               897                       # number of writebacks
system.cpu.icache.ReadReq_mshr_misses::cpu.inst         1409                       # number of ReadReq MSHR misses
system.cpu.icache.ReadReq_mshr_misses::total         1409                       # number of ReadReq MSHR misses
system.cpu.icache.demand_mshr_misses::cpu.inst         1409                       # number of demand (read+write) MSHR misses
system.cpu.icache.demand_mshr_misses::total         1409                       # number of demand (read+write) MSHR misses
system.cpu.icache.overall_mshr_misses::cpu.inst         1409                       # number of overall MSHR misses
system.cpu.icache.overall_mshr_misses::total         1409                       # number of overall MSHR misses
system.cpu.icache.ReadReq_mshr_miss_latency::cpu.inst    103764500                       # number of ReadReq MSHR miss cycles
system.cpu.icache.ReadReq_mshr_miss_latency::total    103764500                       # number of ReadReq MSHR miss cycles
system.cpu.icache.demand_mshr_miss_latency::cpu.inst    103764500                       # number of demand (read+write) MSHR miss cycles
system.cpu.icache.demand_mshr_miss_latency::total    103764500                       # number of demand (read+write) MSHR miss cycles
system.cpu.icache.overall_mshr_miss_latency::cpu.inst    103764500                       # number of overall MSHR miss cycles
system.cpu.icache.overall_mshr_miss_latency::total    103764500                       # number of overall MSHR miss cycles
system.cpu.icache.ReadReq_mshr_miss_rate::cpu.inst     0.000002                       # mshr miss rate for ReadReq accesses
system.cpu.icache.ReadReq_mshr_miss_rate::total     0.000002                       # mshr miss rate for ReadReq accesses
system.cpu.icache.demand_mshr_miss_rate::cpu.inst     0.000002                       # mshr miss rate for demand accesses
system.cpu.icache.demand_mshr_miss_rate::total     0.000002                       # mshr miss rate for demand accesses
system.cpu.icache.overall_mshr_miss_rate::cpu.inst     0.000002                       # mshr miss rate for overall accesses
system.cpu.icache.overall_mshr_miss_rate::total     0.000002                       # mshr miss rate for overall accesses
system.cpu.icache.ReadReq_avg_mshr_miss_latency::cpu.inst 73644.073811                       # average ReadReq mshr miss latency
system.cpu.icache.ReadReq_avg_mshr_miss_latency::total 73644.073811                       # average ReadReq mshr miss latency
system.cpu.icache.demand_avg_mshr_miss_latency::cpu.inst 73644.073811                       # average overall mshr miss latency
system.cpu.icache.demand_avg_mshr_miss_latency::total 73644.073811                       # average overall mshr miss latency
system.cpu.icache.overall_avg_mshr_miss_latency::cpu.inst 73644.073811                       # average overall mshr miss latency
system.cpu.icache.overall_avg_mshr_miss_latency::total 73644.073811                       # average overall mshr miss latency
system.cpu.icache.no_allocate_misses                0                       # Number of misses that were no-allocate
system.cpu.itb_walker_cache.tags.replacements            0                       # number of replacements
system.cpu.itb_walker_cache.tags.tagsinuse            0                       # Cycle average of tags in use
system.cpu.itb_walker_cache.tags.total_refs            0                       # Total number of references to valid blocks.
system.cpu.itb_walker_cache.tags.sampled_refs            0                       # Sample count of references to valid blocks.
system.cpu.itb_walker_cache.tags.avg_refs          nan                       # Average number of references to valid blocks.
system.cpu.itb_walker_cache.tags.warmup_cycle            0                       # Cycle when the warmup percentage was hit.
system.cpu.itb_walker_cache.tags.tag_accesses            0                       # Number of tag accesses
system.cpu.itb_walker_cache.tags.data_accesses            0                       # Number of data accesses
system.cpu.itb_walker_cache.blocked_cycles::no_mshrs            0                       # number of cycles access was blocked
system.cpu.itb_walker_cache.blocked_cycles::no_targets            0                       # number of cycles access was blocked
system.cpu.itb_walker_cache.blocked::no_mshrs            0                       # number of cycles access was blocked
system.cpu.itb_walker_cache.blocked::no_targets            0                       # number of cycles access was blocked
system.cpu.itb_walker_cache.avg_blocked_cycles::no_mshrs          nan                       # average number of cycles each access was blocked
system.cpu.itb_walker_cache.avg_blocked_cycles::no_targets          nan                       # average number of cycles each access was blocked
system.cpu.itb_walker_cache.fast_writes             0                       # number of fast writes performed
system.cpu.itb_walker_cache.cache_copies            0                       # number of cache copies performed
system.cpu.itb_walker_cache.no_allocate_misses            0                       # Number of misses that were no-allocate
system.l2.tags.replacements                       446                       # number of replacements
system.l2.tags.tagsinuse                  4636.645139                       # Cycle average of tags in use
system.l2.tags.total_refs                       83470                       # Total number of references to valid blocks.
system.l2.tags.sampled_refs                      5502                       # Sample count of references to valid blocks.
system.l2.tags.avg_refs                     15.170847                       # Average number of references to valid blocks.
system.l2.tags.warmup_cycle                         0                       # Cycle when the warmup percentage was hit.
system.l2.tags.occ_blocks::writebacks     3049.922993                       # Average occupied blocks per requestor
system.l2.tags.occ_blocks::cpu.inst       1034.610924                       # Average occupied blocks per requestor
system.l2.tags.occ_blocks::cpu.data        552.111221                       # Average occupied blocks per requestor
system.l2.tags.occ_percent::writebacks       0.186153                       # Average percentage of cache occupancy
system.l2.tags.occ_percent::cpu.inst         0.063148                       # Average percentage of cache occupancy
system.l2.tags.occ_percent::cpu.data         0.033698                       # Average percentage of cache occupancy
system.l2.tags.occ_percent::total            0.282998                       # Average percentage of cache occupancy
system.l2.tags.occ_task_id_blocks::1024          5056                       # Occupied blocks per task id
system.l2.tags.age_task_id_blocks_1024::1            1                       # Occupied blocks per task id
system.l2.tags.age_task_id_blocks_1024::3          222                       # Occupied blocks per task id
system.l2.tags.age_task_id_blocks_1024::4         4833                       # Occupied blocks per task id
system.l2.tags.occ_task_id_percent::1024     0.308594                       # Percentage of cache occupancy per task id
system.l2.tags.tag_accesses                    306123                       # Number of tag accesses
system.l2.tags.data_accesses                   306123                       # Number of data accesses
system.l2.WritebackDirty_hits::writebacks       105095                       # number of WritebackDirty hits
system.l2.WritebackDirty_hits::total           105095                       # number of WritebackDirty hits
system.l2.WritebackClean_hits::writebacks          896                       # number of WritebackClean hits
system.l2.WritebackClean_hits::total              896                       # number of WritebackClean hits
system.l2.ReadExReq_hits::cpu.data              77927                       # number of ReadExReq hits
system.l2.ReadExReq_hits::total                 77927                       # number of ReadExReq hits
system.l2.ReadCleanReq_hits::cpu.inst              81                       # number of ReadCleanReq hits
system.l2.ReadCleanReq_hits::total                 81                       # number of ReadCleanReq hits
system.l2.ReadSharedReq_hits::cpu.data          25682                       # number of ReadSharedReq hits
system.l2.ReadSharedReq_hits::total             25682                       # number of ReadSharedReq hits
system.l2.demand_hits::cpu.inst                    81                       # number of demand (read+write) hits
system.l2.demand_hits::cpu.data                103609                       # number of demand (read+write) hits
system.l2.demand_hits::total                   103690                       # number of demand (read+write) hits
system.l2.overall_hits::cpu.inst                   81                       # number of overall hits
system.l2.overall_hits::cpu.data               103609                       # number of overall hits
system.l2.overall_hits::total                  103690                       # number of overall hits
system.l2.ReadExReq_misses::cpu.data             3781                       # number of ReadExReq misses
system.l2.ReadExReq_misses::total                3781                       # number of ReadExReq misses
system.l2.ReadCleanReq_misses::cpu.inst          1328                       # number of ReadCleanReq misses
system.l2.ReadCleanReq_misses::total             1328                       # number of ReadCleanReq misses
system.l2.ReadSharedReq_misses::cpu.data         1938                       # number of ReadSharedReq misses
system.l2.ReadSharedReq_misses::total            1938                       # number of ReadSharedReq misses
system.l2.demand_misses::cpu.inst                1328                       # number of demand (read+write) misses
system.l2.demand_misses::cpu.data                5719                       # number of demand (read+write) misses
system.l2.demand_misses::total                   7047                       # number of demand (read+write) misses
system.l2.overall_misses::cpu.inst               1328                       # number of overall misses
system.l2.overall_misses::cpu.data               5719                       # number of overall misses
system.l2.overall_misses::total                  7047                       # number of overall misses
system.l2.ReadExReq_miss_latency::cpu.data    310990000                       # number of ReadExReq miss cycles
system.l2.ReadExReq_miss_latency::total     310990000                       # number of ReadExReq miss cycles
system.l2.ReadCleanReq_miss_latency::cpu.inst    100791000                       # number of ReadCleanReq miss cycles
system.l2.ReadCleanReq_miss_latency::total    100791000                       # number of ReadCleanReq miss cycles
system.l2.ReadSharedReq_miss_latency::cpu.data    150580500                       # number of ReadSharedReq miss cycles
system.l2.ReadSharedReq_miss_latency::total    150580500                       # number of ReadSharedReq miss cycles
system.l2.demand_miss_latency::cpu.inst     100791000                       # number of demand (read+write) miss cycles
system.l2.demand_miss_latency::cpu.data     461570500                       # number of demand (read+write) miss cycles
system.l2.demand_miss_latency::total        562361500                       # number of demand (read+write) miss cycles
system.l2.overall_miss_latency::cpu.inst    100791000                       # number of overall miss cycles
system.l2.overall_miss_latency::cpu.data    461570500                       # number of overall miss cycles
system.l2.overall_miss_latency::total       562361500                       # number of overall miss cycles
system.l2.WritebackDirty_accesses::writebacks       105095                       # number of WritebackDirty accesses(hits+misses)
system.l2.WritebackDirty_accesses::total       105095                       # number of WritebackDirty accesses(hits+misses)
system.l2.WritebackClean_accesses::writebacks          896                       # number of WritebackClean accesses(hits+misses)
system.l2.WritebackClean_accesses::total          896                       # number of WritebackClean accesses(hits+misses)
system.l2.ReadExReq_accesses::cpu.data          81708                       # number of ReadExReq accesses(hits+misses)
system.l2.ReadExReq_accesses::total             81708                       # number of ReadExReq accesses(hits+misses)
system.l2.ReadCleanReq_accesses::cpu.inst         1409                       # number of ReadCleanReq accesses(hits+misses)
system.l2.ReadCleanReq_accesses::total           1409                       # number of ReadCleanReq accesses(hits+misses)
system.l2.ReadSharedReq_accesses::cpu.data        27620                       # number of ReadSharedReq accesses(hits+misses)
system.l2.ReadSharedReq_accesses::total         27620                       # number of ReadSharedReq accesses(hits+misses)
system.l2.demand_accesses::cpu.inst              1409                       # number of demand (read+write) accesses
system.l2.demand_accesses::cpu.data            109328                       # number of demand (read+write) accesses
system.l2.demand_accesses::total               110737                       # number of demand (read+write) accesses
system.l2.overall_accesses::cpu.inst             1409                       # number of overall (read+write) accesses
system.l2.overall_accesses::cpu.data           109328                       # number of overall (read+write) accesses
system.l2.overall_accesses::total              110737                       # number of overall (read+write) accesses
system.l2.ReadExReq_miss_rate::cpu.data      0.046275                       # miss rate for ReadExReq accesses
system.l2.ReadExReq_miss_rate::total         0.046275                       # miss rate for ReadExReq accesses
system.l2.ReadCleanReq_miss_rate::cpu.inst     0.942512                       # miss rate for ReadCleanReq accesses
system.l2.ReadCleanReq_miss_rate::total      0.942512                       # miss rate for ReadCleanReq accesses
system.l2.ReadSharedReq_miss_rate::cpu.data     0.070167                       # miss rate for ReadSharedReq accesses
system.l2.ReadSharedReq_miss_rate::total     0.070167                       # miss rate for ReadSharedReq accesses
system.l2.demand_miss_rate::cpu.inst         0.942512                       # miss rate for demand accesses
system.l2.demand_miss_rate::cpu.data         0.052310                       # miss rate for demand accesses
system.l2.demand_miss_rate::total            0.063637                       # miss rate for demand accesses
system.l2.overall_miss_rate::cpu.inst        0.942512                       # miss rate for overall accesses
system.l2.overall_miss_rate::cpu.data        0.052310                       # miss rate for overall accesses
system.l2.overall_miss_rate::total           0.063637                       # miss rate for overall accesses
system.l2.ReadExReq_avg_miss_latency::cpu.data 82250.727321                       # average ReadExReq miss latency
system.l2.ReadExReq_avg_miss_latency::total 82250.727321                       # average ReadExReq miss latency
system.l2.ReadCleanReq_avg_miss_latency::cpu.inst 75896.837349                       # average ReadCleanReq miss latency
system.l2.ReadCleanReq_avg_miss_latency::total 75896.837349                       # average ReadCleanReq miss latency
system.l2.ReadSharedReq_avg_miss_latency::cpu.data 77698.916409                       # average ReadSharedReq miss latency
system.l2.ReadSharedReq_avg_miss_latency::total 77698.916409                       # average ReadSharedReq miss latency
system.l2.demand_avg_miss_latency::cpu.inst 75896.837349                       # average overall miss latency
system.l2.demand_avg_miss_latency::cpu.data 80708.253191                       # average overall miss latency
system.l2.demand_avg_miss_latency::total 79801.546757                       # average overall miss latency
system.l2.overall_avg_miss_latency::cpu.inst 75896.837349                       # average overall miss latency
system.l2.overall_avg_miss_latency::cpu.data 80708.253191                       # average overall miss latency
system.l2.overall_avg_miss_latency::total 79801.546757                       # average overall miss latency
system.l2.blocked_cycles::no_mshrs                  0                       # number of cycles access was blocked
system.l2.blocked_cycles::no_targets                0                       # number of cycles access was blocked
system.l2.blocked::no_mshrs                         0                       # number of cycles access was blocked
system.l2.blocked::no_targets                       0                       # number of cycles access was blocked
system.l2.avg_blocked_cycles::no_mshrs            nan                       # average number of cycles each access was blocked
system.l2.avg_blocked_cycles::no_targets          nan                       # average number of cycles each access was blocked
system.l2.fast_writes                               0                       # number of fast writes performed
system.l2.cache_copies                              0                       # number of cache copies performed
system.l2.writebacks::writebacks                   15                       # number of writebacks
system.l2.writebacks::total                        15                       # number of writebacks
system.l2.CleanEvict_mshr_misses::writebacks           79                       # number of CleanEvict MSHR misses
system.l2.CleanEvict_mshr_misses::total            79                       # number of CleanEvict MSHR misses
system.l2.ReadExReq_mshr_misses::cpu.data         3781                       # number of ReadExReq MSHR misses
system.l2.ReadExReq_mshr_misses::total           3781                       # number of ReadExReq MSHR misses
system.l2.ReadCleanReq_mshr_misses::cpu.inst         1328                       # number of ReadCleanReq MSHR misses
system.l2.ReadCleanReq_mshr_misses::total         1328                       # number of ReadCleanReq MSHR misses
system.l2.ReadSharedReq_mshr_misses::cpu.data         1938                       # number of ReadSharedReq MSHR misses
system.l2.ReadSharedReq_mshr_misses::total         1938                       # number of ReadSharedReq MSHR misses
system.l2.demand_mshr_misses::cpu.inst           1328                       # number of demand (read+write) MSHR misses
system.l2.demand_mshr_misses::cpu.data           5719                       # number of demand (read+write) MSHR misses
system.l2.demand_mshr_misses::total              7047                       # number of demand (read+write) MSHR misses
system.l2.overall_mshr_misses::cpu.inst          1328                       # number of overall MSHR misses
system.l2.overall_mshr_misses::cpu.data          5719                       # number of overall MSHR misses
system.l2.overall_mshr_misses::total             7047                       # number of overall MSHR misses
system.l2.ReadExReq_mshr_miss_latency::cpu.data    273180000                       # number of ReadExReq MSHR miss cycles
system.l2.ReadExReq_mshr_miss_latency::total    273180000                       # number of ReadExReq MSHR miss cycles
system.l2.ReadCleanReq_mshr_miss_latency::cpu.inst     87511000                       # number of ReadCleanReq MSHR miss cycles
system.l2.ReadCleanReq_mshr_miss_latency::total     87511000                       # number of ReadCleanReq MSHR miss cycles
system.l2.ReadSharedReq_mshr_miss_latency::cpu.data    131200500                       # number of ReadSharedReq MSHR miss cycles
system.l2.ReadSharedReq_mshr_miss_latency::total    131200500                       # number of ReadSharedReq MSHR miss cycles
system.l2.demand_mshr_miss_latency::cpu.inst     87511000                       # number of demand (read+write) MSHR miss cycles
system.l2.demand_mshr_miss_latency::cpu.data    404380500                       # number of demand (read+write) MSHR miss cycles
system.l2.demand_mshr_miss_latency::total    491891500                       # number of demand (read+write) MSHR miss cycles
system.l2.overall_mshr_miss_latency::cpu.inst     87511000                       # number of overall MSHR miss cycles
system.l2.overall_mshr_miss_latency::cpu.data    404380500                       # number of overall MSHR miss cycles
system.l2.overall_mshr_miss_latency::total    491891500                       # number of overall MSHR miss cycles
system.l2.CleanEvict_mshr_miss_rate::writebacks          inf                       # mshr miss rate for CleanEvict accesses
system.l2.CleanEvict_mshr_miss_rate::total          inf                       # mshr miss rate for CleanEvict accesses
system.l2.ReadExReq_mshr_miss_rate::cpu.data     0.046275                       # mshr miss rate for ReadExReq accesses
system.l2.ReadExReq_mshr_miss_rate::total     0.046275                       # mshr miss rate for ReadExReq accesses
system.l2.ReadCleanReq_mshr_miss_rate::cpu.inst     0.942512                       # mshr miss rate for ReadCleanReq accesses
system.l2.ReadCleanReq_mshr_miss_rate::total     0.942512                       # mshr miss rate for ReadCleanReq accesses
system.l2.ReadSharedReq_mshr_miss_rate::cpu.data     0.070167                       # mshr miss rate for ReadSharedReq accesses
system.l2.ReadSharedReq_mshr_miss_rate::total     0.070167                       # mshr miss rate for ReadSharedReq accesses
system.l2.demand_mshr_miss_rate::cpu.inst     0.942512                       # mshr miss rate for demand accesses
system.l2.demand_mshr_miss_rate::cpu.data     0.052310                       # mshr miss rate for demand accesses
system.l2.demand_mshr_miss_rate::total       0.063637                       # mshr miss rate for demand accesses
system.l2.overall_mshr_miss_rate::cpu.inst     0.942512                       # mshr miss rate for overall accesses
system.l2.overall_mshr_miss_rate::cpu.data     0.052310                       # mshr miss rate for overall accesses
system.l2.overall_mshr_miss_rate::total      0.063637                       # mshr miss rate for overall accesses
system.l2.ReadExReq_avg_mshr_miss_latency::cpu.data 72250.727321                       # average ReadExReq mshr miss latency
system.l2.ReadExReq_avg_mshr_miss_latency::total 72250.727321                       # average ReadExReq mshr miss latency
system.l2.ReadCleanReq_avg_mshr_miss_latency::cpu.inst 65896.837349                       # average ReadCleanReq mshr miss latency
system.l2.ReadCleanReq_avg_mshr_miss_latency::total 65896.837349                       # average ReadCleanReq mshr miss latency
system.l2.ReadSharedReq_avg_mshr_miss_latency::cpu.data 67698.916409                       # average ReadSharedReq mshr miss latency
system.l2.ReadSharedReq_avg_mshr_miss_latency::total 67698.916409                       # average ReadSharedReq mshr miss latency
system.l2.demand_avg_mshr_miss_latency::cpu.inst 65896.837349                       # average overall mshr miss latency
system.l2.demand_avg_mshr_miss_latency::cpu.data 70708.253191                       # average overall mshr miss latency
system.l2.demand_avg_mshr_miss_latency::total 69801.546757                       # average overall mshr miss latency
system.l2.overall_avg_mshr_miss_latency::cpu.inst 65896.837349                       # average overall mshr miss latency
system.l2.overall_avg_mshr_miss_latency::cpu.data 70708.253191                       # average overall mshr miss latency
system.l2.overall_avg_mshr_miss_latency::total 69801.546757                       # average overall mshr miss latency
system.l2.no_allocate_misses                        0                       # Number of misses that were no-allocate
system.membus.trans_dist::ReadResp               3266                       # Transaction distribution
system.membus.trans_dist::WritebackDirty           15                       # Transaction distribution
system.membus.trans_dist::CleanEvict              302                       # Transaction distribution
system.membus.trans_dist::ReadExReq              3781                       # Transaction distribution
system.membus.trans_dist::ReadExResp             3781                       # Transaction distribution
system.membus.trans_dist::ReadSharedReq          3266                       # Transaction distribution
system.membus.pkt_count_system.l2.mem_side::system.mem_ctrls.port        14411                       # Packet count per connected master and slave (bytes)
system.membus.pkt_count_system.l2.mem_side::total        14411                       # Packet count per connected master and slave (bytes)
system.membus.pkt_count::total                  14411                       # Packet count per connected master and slave (bytes)
system.membus.pkt_size_system.l2.mem_side::system.mem_ctrls.port       451968                       # Cumulative packet size per connected master and slave (bytes)
system.membus.pkt_size_system.l2.mem_side::total       451968                       # Cumulative packet size per connected master and slave (bytes)
system.membus.pkt_size::total                  451968                       # Cumulative packet size per connected master and slave (bytes)
system.membus.snoops                                0                       # Total snoops (count)
system.membus.snoop_fanout::samples              7364                       # Request fanout histogram
system.membus.snoop_fanout::mean                    0                       # Request fanout histogram
system.membus.snoop_fanout::stdev                   0                       # Request fanout histogram
system.membus.snoop_fanout::underflows              0      0.00%      0.00% # Request fanout histogram
system.membus.snoop_fanout::0                    7364    100.00%    100.00% # Request fanout histogram
system.membus.snoop_fanout::1                       0      0.00%    100.00% # Request fanout histogram
system.membus.snoop_fanout::overflows               0      0.00%    100.00% # Request fanout histogram
system.membus.snoop_fanout::min_value               0                       # Request fanout histogram
system.membus.snoop_fanout::max_value               0                       # Request fanout histogram
system.membus.snoop_fanout::total                7364                       # Request fanout histogram
system.membus.reqLayer2.occupancy             7969500                       # Layer occupancy (ticks)
system.membus.reqLayer2.utilization               0.0                       # Layer utilization (%)
system.membus.respLayer1.occupancy           37460250                       # Layer occupancy (ticks)
system.membus.respLayer1.utilization              0.0                       # Layer utilization (%)
system.tol2bus.snoop_filter.tot_requests       218914                       # Total number of requests made to the snoop filter.
system.tol2bus.snoop_filter.hit_single_requests       108177                       # Number of requests hitting in the snoop filter with a single holder of the requested data.
system.tol2bus.snoop_filter.hit_multi_requests            1                       # Number of requests hitting in the snoop filter with multiple (>1) holders of the requested data.
system.tol2bus.snoop_filter.tot_snoops            208                       # Total number of snoops made to the snoop filter.
system.tol2bus.snoop_filter.hit_single_snoops          208                       # Number of snoops hitting in the snoop filter with a single holder of the requested data.
system.tol2bus.snoop_filter.hit_multi_snoops            0                       # Number of snoops hitting in the snoop filter with multiple (>1) holders of the requested data.
system.tol2bus.trans_dist::ReadResp             29029                       # Transaction distribution
system.tol2bus.trans_dist::WritebackDirty       105110                       # Transaction distribution
system.tol2bus.trans_dist::WritebackClean          896                       # Transaction distribution
system.tol2bus.trans_dist::CleanEvict            2616                       # Transaction distribution
system.tol2bus.trans_dist::ReadExReq            81708                       # Transaction distribution
system.tol2bus.trans_dist::ReadExResp           81708                       # Transaction distribution
system.tol2bus.trans_dist::ReadCleanReq          1409                       # Transaction distribution
system.tol2bus.trans_dist::ReadSharedReq        27620                       # Transaction distribution
system.tol2bus.pkt_count_system.cpu.icache.mem_side::system.l2.cpu_side         3714                       # Packet count per connected master and slave (bytes)
system.tol2bus.pkt_count_system.cpu.dcache.mem_side::system.l2.cpu_side       325936                       # Packet count per connected master and slave (bytes)
system.tol2bus.pkt_count::total                329650                       # Packet count per connected master and slave (bytes)
system.tol2bus.pkt_size_system.cpu.icache.mem_side::system.l2.cpu_side       147520                       # Cumulative packet size per connected master and slave (bytes)
system.tol2bus.pkt_size_system.cpu.dcache.mem_side::system.l2.cpu_side     13723072                       # Cumulative packet size per connected master and slave (bytes)
system.tol2bus.pkt_size::total               13870592                       # Cumulative packet size per connected master and slave (bytes)
system.tol2bus.snoops                             446                       # Total snoops (count)
system.tol2bus.snoop_fanout::samples           111183                       # Request fanout histogram
system.tol2bus.snoop_fanout::mean            0.001880                       # Request fanout histogram
system.tol2bus.snoop_fanout::stdev           0.043316                       # Request fanout histogram
system.tol2bus.snoop_fanout::underflows             0      0.00%      0.00% # Request fanout histogram
system.tol2bus.snoop_fanout::0                 110974     99.81%     99.81% # Request fanout histogram
system.tol2bus.snoop_fanout::1                    209      0.19%    100.00% # Request fanout histogram
system.tol2bus.snoop_fanout::2                      0      0.00%    100.00% # Request fanout histogram
system.tol2bus.snoop_fanout::3                      0      0.00%    100.00% # Request fanout histogram
system.tol2bus.snoop_fanout::4                      0      0.00%    100.00% # Request fanout histogram
system.tol2bus.snoop_fanout::overflows              0      0.00%    100.00% # Request fanout histogram
system.tol2bus.snoop_fanout::min_value              0                       # Request fanout histogram
system.tol2bus.snoop_fanout::max_value              1                       # Request fanout histogram
system.tol2bus.snoop_fanout::total             111183                       # Request fanout histogram
system.tol2bus.reqLayer0.occupancy          215449000                       # Layer occupancy (ticks)
system.tol2bus.reqLayer0.utilization              0.0                       # Layer utilization (%)
system.tol2bus.respLayer0.occupancy           2113500                       # Layer occupancy (ticks)
system.tol2bus.respLayer0.utilization             0.0                       # Layer utilization (%)
system.tol2bus.respLayer1.occupancy         163992000                       # Layer occupancy (ticks)
system.tol2bus.respLayer1.utilization             0.0                       # Layer utilization (%)

---------- End Simulation Statistics   ----------
