
---------- Begin Simulation Statistics ----------
sim_seconds                                  0.954119                       # Number of seconds simulated
sim_ticks                                954119100500                       # Number of ticks simulated
final_tick                               954119100500                       # Number of ticks from beginning of simulation (restored from checkpoints and never reset)
sim_freq                                 1000000000000                       # Frequency of simulated ticks
host_inst_rate                                 765207                       # Simulator instruction rate (inst/s)
host_op_rate                                   986957                       # Simulator op (including micro ops) rate (op/s)
host_tick_rate                             1460196305                       # Simulator tick rate (ticks/s)
host_mem_usage                                 835980                       # Number of bytes of host memory used
host_seconds                                   653.42                       # Real time elapsed on the host
sim_insts                                   500000000                       # Number of instructions simulated
sim_ops                                     644895733                       # Number of ops (including micro ops) simulated
system.voltage_domain.voltage                       1                       # Voltage in Volts
system.clk_domain.clock                          1000                       # Clock period in ticks
system.mem_ctrls.bytes_read::cpu.inst           72640                       # Number of bytes read from this memory
system.mem_ctrls.bytes_read::cpu.data          357344                       # Number of bytes read from this memory
system.mem_ctrls.bytes_read::total             429984                       # Number of bytes read from this memory
system.mem_ctrls.bytes_inst_read::cpu.inst        72640                       # Number of instructions bytes read from this memory
system.mem_ctrls.bytes_inst_read::total         72640                       # Number of instructions bytes read from this memory
system.mem_ctrls.bytes_written::writebacks          480                       # Number of bytes written to this memory
system.mem_ctrls.bytes_written::total             480                       # Number of bytes written to this memory
system.mem_ctrls.num_reads::cpu.inst             2270                       # Number of read requests responded to by this memory
system.mem_ctrls.num_reads::cpu.data            11167                       # Number of read requests responded to by this memory
system.mem_ctrls.num_reads::total               13437                       # Number of read requests responded to by this memory
system.mem_ctrls.num_writes::writebacks            15                       # Number of write requests responded to by this memory
system.mem_ctrls.num_writes::total                 15                       # Number of write requests responded to by this memory
system.mem_ctrls.bw_read::cpu.inst              76133                       # Total read bandwidth from this memory (bytes/s)
system.mem_ctrls.bw_read::cpu.data             374528                       # Total read bandwidth from this memory (bytes/s)
system.mem_ctrls.bw_read::total                450661                       # Total read bandwidth from this memory (bytes/s)
system.mem_ctrls.bw_inst_read::cpu.inst         76133                       # Instruction read bandwidth from this memory (bytes/s)
system.mem_ctrls.bw_inst_read::total            76133                       # Instruction read bandwidth from this memory (bytes/s)
system.mem_ctrls.bw_write::writebacks             503                       # Write bandwidth from this memory (bytes/s)
system.mem_ctrls.bw_write::total                  503                       # Write bandwidth from this memory (bytes/s)
system.mem_ctrls.bw_total::writebacks             503                       # Total bandwidth to/from this memory (bytes/s)
system.mem_ctrls.bw_total::cpu.inst             76133                       # Total bandwidth to/from this memory (bytes/s)
system.mem_ctrls.bw_total::cpu.data            374528                       # Total bandwidth to/from this memory (bytes/s)
system.mem_ctrls.bw_total::total               451164                       # Total bandwidth to/from this memory (bytes/s)
system.mem_ctrls.readReqs                       13437                       # Number of read requests accepted
system.mem_ctrls.writeReqs                         15                       # Number of write requests accepted
system.mem_ctrls.readBursts                     13437                       # Number of DRAM read bursts, including those serviced by the write queue
system.mem_ctrls.writeBursts                       15                       # Number of DRAM write bursts, including those merged in the write queue
system.mem_ctrls.bytesReadDRAM                 859904                       # Total number of bytes read from DRAM
system.mem_ctrls.bytesReadWrQ                      64                       # Total number of bytes read from write queue
system.mem_ctrls.bytesWritten                       0                       # Total number of bytes written to DRAM
system.mem_ctrls.bytesReadSys                  429984                       # Total read bytes from the system interface side
system.mem_ctrls.bytesWrittenSys                  480                       # Total written bytes from the system interface side
system.mem_ctrls.servicedByWrQ                      1                       # Number of DRAM read bursts serviced by the write queue
system.mem_ctrls.mergedWrBursts                     4                       # Number of DRAM write bursts merged with an existing one
system.mem_ctrls.neitherReadNorWriteReqs           83                       # Number of requests that are neither read nor write
system.mem_ctrls.perBankRdBursts::0               605                       # Per bank write bursts
system.mem_ctrls.perBankRdBursts::1               674                       # Per bank write bursts
system.mem_ctrls.perBankRdBursts::2               820                       # Per bank write bursts
system.mem_ctrls.perBankRdBursts::3               610                       # Per bank write bursts
system.mem_ctrls.perBankRdBursts::4               891                       # Per bank write bursts
system.mem_ctrls.perBankRdBursts::5               778                       # Per bank write bursts
system.mem_ctrls.perBankRdBursts::6               659                       # Per bank write bursts
system.mem_ctrls.perBankRdBursts::7               784                       # Per bank write bursts
system.mem_ctrls.perBankRdBursts::8               926                       # Per bank write bursts
system.mem_ctrls.perBankRdBursts::9               959                       # Per bank write bursts
system.mem_ctrls.perBankRdBursts::10             1039                       # Per bank write bursts
system.mem_ctrls.perBankRdBursts::11             1136                       # Per bank write bursts
system.mem_ctrls.perBankRdBursts::12              949                       # Per bank write bursts
system.mem_ctrls.perBankRdBursts::13              884                       # Per bank write bursts
system.mem_ctrls.perBankRdBursts::14              852                       # Per bank write bursts
system.mem_ctrls.perBankRdBursts::15              870                       # Per bank write bursts
system.mem_ctrls.perBankWrBursts::0                 0                       # Per bank write bursts
system.mem_ctrls.perBankWrBursts::1                 0                       # Per bank write bursts
system.mem_ctrls.perBankWrBursts::2                 0                       # Per bank write bursts
system.mem_ctrls.perBankWrBursts::3                 0                       # Per bank write bursts
system.mem_ctrls.perBankWrBursts::4                 0                       # Per bank write bursts
system.mem_ctrls.perBankWrBursts::5                 0                       # Per bank write bursts
system.mem_ctrls.perBankWrBursts::6                 0                       # Per bank write bursts
system.mem_ctrls.perBankWrBursts::7                 0                       # Per bank write bursts
system.mem_ctrls.perBankWrBursts::8                 0                       # Per bank write bursts
system.mem_ctrls.perBankWrBursts::9                 0                       # Per bank write bursts
system.mem_ctrls.perBankWrBursts::10                0                       # Per bank write bursts
system.mem_ctrls.perBankWrBursts::11                0                       # Per bank write bursts
system.mem_ctrls.perBankWrBursts::12                0                       # Per bank write bursts
system.mem_ctrls.perBankWrBursts::13                0                       # Per bank write bursts
system.mem_ctrls.perBankWrBursts::14                0                       # Per bank write bursts
system.mem_ctrls.perBankWrBursts::15                0                       # Per bank write bursts
system.mem_ctrls.numRdRetry                         0                       # Number of times read queue was full causing retry
system.mem_ctrls.numWrRetry                         0                       # Number of times write queue was full causing retry
system.mem_ctrls.totGap                  340177802500                       # Total gap between requests
system.mem_ctrls.readPktSize::0                     0                       # Read request sizes (log2)
system.mem_ctrls.readPktSize::1                     0                       # Read request sizes (log2)
system.mem_ctrls.readPktSize::2                     0                       # Read request sizes (log2)
system.mem_ctrls.readPktSize::3                     0                       # Read request sizes (log2)
system.mem_ctrls.readPktSize::4                     0                       # Read request sizes (log2)
system.mem_ctrls.readPktSize::5                 13437                       # Read request sizes (log2)
system.mem_ctrls.readPktSize::6                     0                       # Read request sizes (log2)
system.mem_ctrls.writePktSize::0                    0                       # Write request sizes (log2)
system.mem_ctrls.writePktSize::1                    0                       # Write request sizes (log2)
system.mem_ctrls.writePktSize::2                    0                       # Write request sizes (log2)
system.mem_ctrls.writePktSize::3                    0                       # Write request sizes (log2)
system.mem_ctrls.writePktSize::4                    0                       # Write request sizes (log2)
system.mem_ctrls.writePktSize::5                   15                       # Write request sizes (log2)
system.mem_ctrls.writePktSize::6                    0                       # Write request sizes (log2)
system.mem_ctrls.rdQLenPdf::0                   12172                       # What read queue length does an incoming req see
system.mem_ctrls.rdQLenPdf::1                     647                       # What read queue length does an incoming req see
system.mem_ctrls.rdQLenPdf::2                     617                       # What read queue length does an incoming req see
system.mem_ctrls.rdQLenPdf::3                       0                       # What read queue length does an incoming req see
system.mem_ctrls.rdQLenPdf::4                       0                       # What read queue length does an incoming req see
system.mem_ctrls.rdQLenPdf::5                       0                       # What read queue length does an incoming req see
system.mem_ctrls.rdQLenPdf::6                       0                       # What read queue length does an incoming req see
system.mem_ctrls.rdQLenPdf::7                       0                       # What read queue length does an incoming req see
system.mem_ctrls.rdQLenPdf::8                       0                       # What read queue length does an incoming req see
system.mem_ctrls.rdQLenPdf::9                       0                       # What read queue length does an incoming req see
system.mem_ctrls.rdQLenPdf::10                      0                       # What read queue length does an incoming req see
system.mem_ctrls.rdQLenPdf::11                      0                       # What read queue length does an incoming req see
system.mem_ctrls.rdQLenPdf::12                      0                       # What read queue length does an incoming req see
system.mem_ctrls.rdQLenPdf::13                      0                       # What read queue length does an incoming req see
system.mem_ctrls.rdQLenPdf::14                      0                       # What read queue length does an incoming req see
system.mem_ctrls.rdQLenPdf::15                      0                       # What read queue length does an incoming req see
system.mem_ctrls.rdQLenPdf::16                      0                       # What read queue length does an incoming req see
system.mem_ctrls.rdQLenPdf::17                      0                       # What read queue length does an incoming req see
system.mem_ctrls.rdQLenPdf::18                      0                       # What read queue length does an incoming req see
system.mem_ctrls.rdQLenPdf::19                      0                       # What read queue length does an incoming req see
system.mem_ctrls.rdQLenPdf::20                      0                       # What read queue length does an incoming req see
system.mem_ctrls.rdQLenPdf::21                      0                       # What read queue length does an incoming req see
system.mem_ctrls.rdQLenPdf::22                      0                       # What read queue length does an incoming req see
system.mem_ctrls.rdQLenPdf::23                      0                       # What read queue length does an incoming req see
system.mem_ctrls.rdQLenPdf::24                      0                       # What read queue length does an incoming req see
system.mem_ctrls.rdQLenPdf::25                      0                       # What read queue length does an incoming req see
system.mem_ctrls.rdQLenPdf::26                      0                       # What read queue length does an incoming req see
system.mem_ctrls.rdQLenPdf::27                      0                       # What read queue length does an incoming req see
system.mem_ctrls.rdQLenPdf::28                      0                       # What read queue length does an incoming req see
system.mem_ctrls.rdQLenPdf::29                      0                       # What read queue length does an incoming req see
system.mem_ctrls.rdQLenPdf::30                      0                       # What read queue length does an incoming req see
system.mem_ctrls.rdQLenPdf::31                      0                       # What read queue length does an incoming req see
system.mem_ctrls.wrQLenPdf::0                       1                       # What write queue length does an incoming req see
system.mem_ctrls.wrQLenPdf::1                       1                       # What write queue length does an incoming req see
system.mem_ctrls.wrQLenPdf::2                       1                       # What write queue length does an incoming req see
system.mem_ctrls.wrQLenPdf::3                       1                       # What write queue length does an incoming req see
system.mem_ctrls.wrQLenPdf::4                       1                       # What write queue length does an incoming req see
system.mem_ctrls.wrQLenPdf::5                       1                       # What write queue length does an incoming req see
system.mem_ctrls.wrQLenPdf::6                       1                       # What write queue length does an incoming req see
system.mem_ctrls.wrQLenPdf::7                       1                       # What write queue length does an incoming req see
system.mem_ctrls.wrQLenPdf::8                       1                       # What write queue length does an incoming req see
system.mem_ctrls.wrQLenPdf::9                       1                       # What write queue length does an incoming req see
system.mem_ctrls.wrQLenPdf::10                      1                       # What write queue length does an incoming req see
system.mem_ctrls.wrQLenPdf::11                      0                       # What write queue length does an incoming req see
system.mem_ctrls.wrQLenPdf::12                      0                       # What write queue length does an incoming req see
system.mem_ctrls.wrQLenPdf::13                      0                       # What write queue length does an incoming req see
system.mem_ctrls.wrQLenPdf::14                      0                       # What write queue length does an incoming req see
system.mem_ctrls.wrQLenPdf::15                      0                       # What write queue length does an incoming req see
system.mem_ctrls.wrQLenPdf::16                      0                       # What write queue length does an incoming req see
system.mem_ctrls.wrQLenPdf::17                      0                       # What write queue length does an incoming req see
system.mem_ctrls.wrQLenPdf::18                      0                       # What write queue length does an incoming req see
system.mem_ctrls.wrQLenPdf::19                      0                       # What write queue length does an incoming req see
system.mem_ctrls.wrQLenPdf::20                      0                       # What write queue length does an incoming req see
system.mem_ctrls.wrQLenPdf::21                      0                       # What write queue length does an incoming req see
system.mem_ctrls.wrQLenPdf::22                      0                       # What write queue length does an incoming req see
system.mem_ctrls.wrQLenPdf::23                      0                       # What write queue length does an incoming req see
system.mem_ctrls.wrQLenPdf::24                      0                       # What write queue length does an incoming req see
system.mem_ctrls.wrQLenPdf::25                      0                       # What write queue length does an incoming req see
system.mem_ctrls.wrQLenPdf::26                      0                       # What write queue length does an incoming req see
system.mem_ctrls.wrQLenPdf::27                      0                       # What write queue length does an incoming req see
system.mem_ctrls.wrQLenPdf::28                      0                       # What write queue length does an incoming req see
system.mem_ctrls.wrQLenPdf::29                      0                       # What write queue length does an incoming req see
system.mem_ctrls.wrQLenPdf::30                      0                       # What write queue length does an incoming req see
system.mem_ctrls.wrQLenPdf::31                      0                       # What write queue length does an incoming req see
system.mem_ctrls.wrQLenPdf::32                      0                       # What write queue length does an incoming req see
system.mem_ctrls.wrQLenPdf::33                      0                       # What write queue length does an incoming req see
system.mem_ctrls.wrQLenPdf::34                      0                       # What write queue length does an incoming req see
system.mem_ctrls.wrQLenPdf::35                      0                       # What write queue length does an incoming req see
system.mem_ctrls.wrQLenPdf::36                      0                       # What write queue length does an incoming req see
system.mem_ctrls.wrQLenPdf::37                      0                       # What write queue length does an incoming req see
system.mem_ctrls.wrQLenPdf::38                      0                       # What write queue length does an incoming req see
system.mem_ctrls.wrQLenPdf::39                      0                       # What write queue length does an incoming req see
system.mem_ctrls.wrQLenPdf::40                      0                       # What write queue length does an incoming req see
system.mem_ctrls.wrQLenPdf::41                      0                       # What write queue length does an incoming req see
system.mem_ctrls.wrQLenPdf::42                      0                       # What write queue length does an incoming req see
system.mem_ctrls.wrQLenPdf::43                      0                       # What write queue length does an incoming req see
system.mem_ctrls.wrQLenPdf::44                      0                       # What write queue length does an incoming req see
system.mem_ctrls.wrQLenPdf::45                      0                       # What write queue length does an incoming req see
system.mem_ctrls.wrQLenPdf::46                      0                       # What write queue length does an incoming req see
system.mem_ctrls.wrQLenPdf::47                      0                       # What write queue length does an incoming req see
system.mem_ctrls.wrQLenPdf::48                      0                       # What write queue length does an incoming req see
system.mem_ctrls.wrQLenPdf::49                      0                       # What write queue length does an incoming req see
system.mem_ctrls.wrQLenPdf::50                      0                       # What write queue length does an incoming req see
system.mem_ctrls.wrQLenPdf::51                      0                       # What write queue length does an incoming req see
system.mem_ctrls.wrQLenPdf::52                      0                       # What write queue length does an incoming req see
system.mem_ctrls.wrQLenPdf::53                      0                       # What write queue length does an incoming req see
system.mem_ctrls.wrQLenPdf::54                      0                       # What write queue length does an incoming req see
system.mem_ctrls.wrQLenPdf::55                      0                       # What write queue length does an incoming req see
system.mem_ctrls.wrQLenPdf::56                      0                       # What write queue length does an incoming req see
system.mem_ctrls.wrQLenPdf::57                      0                       # What write queue length does an incoming req see
system.mem_ctrls.wrQLenPdf::58                      0                       # What write queue length does an incoming req see
system.mem_ctrls.wrQLenPdf::59                      0                       # What write queue length does an incoming req see
system.mem_ctrls.wrQLenPdf::60                      0                       # What write queue length does an incoming req see
system.mem_ctrls.wrQLenPdf::61                      0                       # What write queue length does an incoming req see
system.mem_ctrls.wrQLenPdf::62                      0                       # What write queue length does an incoming req see
system.mem_ctrls.wrQLenPdf::63                      0                       # What write queue length does an incoming req see
system.mem_ctrls.bytesPerActivate::samples         3176                       # Bytes accessed per row activation
system.mem_ctrls.bytesPerActivate::mean    270.750630                       # Bytes accessed per row activation
system.mem_ctrls.bytesPerActivate::gmean   166.902629                       # Bytes accessed per row activation
system.mem_ctrls.bytesPerActivate::stdev   318.144749                       # Bytes accessed per row activation
system.mem_ctrls.bytesPerActivate::0-127          747     23.52%     23.52% # Bytes accessed per row activation
system.mem_ctrls.bytesPerActivate::128-255         1641     51.67%     75.19% # Bytes accessed per row activation
system.mem_ctrls.bytesPerActivate::256-383          136      4.28%     79.47% # Bytes accessed per row activation
system.mem_ctrls.bytesPerActivate::384-511           89      2.80%     82.27% # Bytes accessed per row activation
system.mem_ctrls.bytesPerActivate::512-639           63      1.98%     84.26% # Bytes accessed per row activation
system.mem_ctrls.bytesPerActivate::640-767           51      1.61%     85.86% # Bytes accessed per row activation
system.mem_ctrls.bytesPerActivate::768-895           29      0.91%     86.78% # Bytes accessed per row activation
system.mem_ctrls.bytesPerActivate::896-1023           26      0.82%     87.59% # Bytes accessed per row activation
system.mem_ctrls.bytesPerActivate::1024-1151          394     12.41%    100.00% # Bytes accessed per row activation
system.mem_ctrls.bytesPerActivate::total         3176                       # Bytes accessed per row activation
system.mem_ctrls.totQLat                     96842500                       # Total ticks spent queuing
system.mem_ctrls.totMemAccLat               348767500                       # Total ticks spent from burst creation until serviced by the DRAM
system.mem_ctrls.totBusLat                   67180000                       # Total ticks spent in databus transfers
system.mem_ctrls.avgQLat                      7207.69                       # Average queueing delay per DRAM burst
system.mem_ctrls.avgBusLat                    5000.00                       # Average bus latency per DRAM burst
system.mem_ctrls.avgMemAccLat                25957.69                       # Average memory access latency per DRAM burst
system.mem_ctrls.avgRdBW                         0.90                       # Average DRAM read bandwidth in MiByte/s
system.mem_ctrls.avgWrBW                         0.00                       # Average achieved write bandwidth in MiByte/s
system.mem_ctrls.avgRdBWSys                      0.45                       # Average system read bandwidth in MiByte/s
system.mem_ctrls.avgWrBWSys                      0.00                       # Average system write bandwidth in MiByte/s
system.mem_ctrls.peakBW                      12800.00                       # Theoretical peak bandwidth in MiByte/s
system.mem_ctrls.busUtil                         0.01                       # Data bus utilization in percentage
system.mem_ctrls.busUtilRead                     0.01                       # Data bus utilization in percentage for reads
system.mem_ctrls.busUtilWrite                    0.00                       # Data bus utilization in percentage for writes
system.mem_ctrls.avgRdQLen                       1.00                       # Average read queue length when enqueuing
system.mem_ctrls.avgWrQLen                      10.13                       # Average write queue length when enqueuing
system.mem_ctrls.readRowHits                    10260                       # Number of row buffer hits during reads
system.mem_ctrls.writeRowHits                       0                       # Number of row buffer hits during writes
system.mem_ctrls.readRowHitRate                 76.36                       # Row buffer hit rate for reads
system.mem_ctrls.writeRowHitRate                 0.00                       # Row buffer hit rate for writes
system.mem_ctrls.avgGap                   25288269.59                       # Average gap between requests
system.mem_ctrls.pageHitRate                    76.30                       # Row buffer hit rate, read and write combined
system.mem_ctrls_0.actEnergy                 10735200                       # Energy for activate commands per rank (pJ)
system.mem_ctrls_0.preEnergy                  5857500                       # Energy for precharge commands per rank (pJ)
system.mem_ctrls_0.readEnergy                45403800                       # Energy for read commands per rank (pJ)
system.mem_ctrls_0.writeEnergy                      0                       # Energy for write commands per rank (pJ)
system.mem_ctrls_0.refreshEnergy          62317925280                       # Energy for refresh commands per rank (pJ)
system.mem_ctrls_0.actBackEnergy          23451296535                       # Energy for active background per rank (pJ)
system.mem_ctrls_0.preBackEnergy         551895736500                       # Energy for precharge background per rank (pJ)
system.mem_ctrls_0.totalEnergy           637726954815                       # Total energy per rank (pJ)
system.mem_ctrls_0.averagePower            668.398598                       # Core power per rank (mW)
system.mem_ctrls_0.memoryStateTime::IDLE 918129377250                       # Time in different power states
system.mem_ctrls_0.memoryStateTime::REF   31859880000                       # Time in different power states
system.mem_ctrls_0.memoryStateTime::PRE_PDN            0                       # Time in different power states
system.mem_ctrls_0.memoryStateTime::ACT    4122505250                       # Time in different power states
system.mem_ctrls_0.memoryStateTime::ACT_PDN            0                       # Time in different power states
system.mem_ctrls_1.actEnergy                 13275360                       # Energy for activate commands per rank (pJ)
system.mem_ctrls_1.preEnergy                  7243500                       # Energy for precharge commands per rank (pJ)
system.mem_ctrls_1.readEnergy                59397000                       # Energy for read commands per rank (pJ)
system.mem_ctrls_1.writeEnergy                      0                       # Energy for write commands per rank (pJ)
system.mem_ctrls_1.refreshEnergy          62317925280                       # Energy for refresh commands per rank (pJ)
system.mem_ctrls_1.actBackEnergy          23795847855                       # Energy for active background per rank (pJ)
system.mem_ctrls_1.preBackEnergy         551593498500                       # Energy for precharge background per rank (pJ)
system.mem_ctrls_1.totalEnergy           637787187495                       # Total energy per rank (pJ)
system.mem_ctrls_1.averagePower            668.461727                       # Core power per rank (mW)
system.mem_ctrls_1.memoryStateTime::IDLE 917624768250                       # Time in different power states
system.mem_ctrls_1.memoryStateTime::REF   31859880000                       # Time in different power states
system.mem_ctrls_1.memoryStateTime::PRE_PDN            0                       # Time in different power states
system.mem_ctrls_1.memoryStateTime::ACT    4627114250                       # Time in different power states
system.mem_ctrls_1.memoryStateTime::ACT_PDN            0                       # Time in different power states
system.cpu_voltage_domain.voltage                   1                       # Voltage in Volts
system.cpu_clk_domain.clock                       500                       # Clock period in ticks
system.cpu.apic_clk_domain.clock                 8000                       # Clock period in ticks
system.cpu.workload.num_syscalls                   35                       # Number of system calls
system.cpu.numCycles                       1908238201                       # number of cpu cycles simulated
system.cpu.numWorkItemsStarted                      0                       # number of work items this cpu started
system.cpu.numWorkItemsCompleted                    0                       # number of work items this cpu completed
system.cpu.committedInsts                   500000000                       # Number of instructions committed
system.cpu.committedOps                     644895733                       # Number of ops (including micro ops) committed
system.cpu.num_int_alu_accesses             625873233                       # Number of integer alu accesses
system.cpu.num_fp_alu_accesses               27676254                       # Number of float alu accesses
system.cpu.num_func_calls                     1531165                       # number of times a function call or return occured
system.cpu.num_conditional_control_insts     25302281                       # number of instructions that are conditional controls
system.cpu.num_int_insts                    625873233                       # number of integer instructions
system.cpu.num_fp_insts                      27676254                       # number of float instructions
system.cpu.num_int_register_reads          1467548657                       # number of times the integer registers were read
system.cpu.num_int_register_writes          569494356                       # number of times the integer registers were written
system.cpu.num_fp_register_reads             21879879                       # number of times the floating registers were read
system.cpu.num_fp_register_writes            23672685                       # number of times the floating registers were written
system.cpu.num_cc_register_reads            187332012                       # number of times the CC registers were read
system.cpu.num_cc_register_writes           260734382                       # number of times the CC registers were written
system.cpu.num_mem_refs                     254894307                       # number of memory refs
system.cpu.num_load_insts                   219204129                       # Number of load instructions
system.cpu.num_store_insts                   35690178                       # Number of store instructions
system.cpu.num_idle_cycles                          0                       # Number of idle cycles
system.cpu.num_busy_cycles                 1908238201                       # Number of busy cycles
system.cpu.not_idle_fraction                        1                       # Percentage of non-idle cycles
system.cpu.idle_fraction                            0                       # Percentage of idle cycles
system.cpu.Branches                          27605108                       # Number of branches fetched
system.cpu.op_class::No_OpClass               1502715      0.23%      0.23% # Class of executed instruction
system.cpu.op_class::IntAlu                 363720567     56.40%     56.63% # Class of executed instruction
system.cpu.op_class::IntMult                   618823      0.10%     56.73% # Class of executed instruction
system.cpu.op_class::IntDiv                   6323450      0.98%     57.71% # Class of executed instruction
system.cpu.op_class::FloatAdd                17835871      2.77%     60.48% # Class of executed instruction
system.cpu.op_class::FloatCmp                       0      0.00%     60.48% # Class of executed instruction
system.cpu.op_class::FloatCvt                       0      0.00%     60.48% # Class of executed instruction
system.cpu.op_class::FloatMult                      0      0.00%     60.48% # Class of executed instruction
system.cpu.op_class::FloatDiv                       0      0.00%     60.48% # Class of executed instruction
system.cpu.op_class::FloatSqrt                      0      0.00%     60.48% # Class of executed instruction
system.cpu.op_class::SimdAdd                        0      0.00%     60.48% # Class of executed instruction
system.cpu.op_class::SimdAddAcc                     0      0.00%     60.48% # Class of executed instruction
system.cpu.op_class::SimdAlu                        0      0.00%     60.48% # Class of executed instruction
system.cpu.op_class::SimdCmp                        0      0.00%     60.48% # Class of executed instruction
system.cpu.op_class::SimdCvt                        0      0.00%     60.48% # Class of executed instruction
system.cpu.op_class::SimdMisc                       0      0.00%     60.48% # Class of executed instruction
system.cpu.op_class::SimdMult                       0      0.00%     60.48% # Class of executed instruction
system.cpu.op_class::SimdMultAcc                    0      0.00%     60.48% # Class of executed instruction
system.cpu.op_class::SimdShift                      0      0.00%     60.48% # Class of executed instruction
system.cpu.op_class::SimdShiftAcc                   0      0.00%     60.48% # Class of executed instruction
system.cpu.op_class::SimdSqrt                       0      0.00%     60.48% # Class of executed instruction
system.cpu.op_class::SimdFloatAdd                   0      0.00%     60.48% # Class of executed instruction
system.cpu.op_class::SimdFloatAlu                   0      0.00%     60.48% # Class of executed instruction
system.cpu.op_class::SimdFloatCmp                   0      0.00%     60.48% # Class of executed instruction
system.cpu.op_class::SimdFloatCvt                   0      0.00%     60.48% # Class of executed instruction
system.cpu.op_class::SimdFloatDiv                   0      0.00%     60.48% # Class of executed instruction
system.cpu.op_class::SimdFloatMisc                  0      0.00%     60.48% # Class of executed instruction
system.cpu.op_class::SimdFloatMult                  0      0.00%     60.48% # Class of executed instruction
system.cpu.op_class::SimdFloatMultAcc               0      0.00%     60.48% # Class of executed instruction
system.cpu.op_class::SimdFloatSqrt                  0      0.00%     60.48% # Class of executed instruction
system.cpu.op_class::MemRead                219204129     33.99%     94.47% # Class of executed instruction
system.cpu.op_class::MemWrite                35690178      5.53%    100.00% # Class of executed instruction
system.cpu.op_class::IprAccess                      0      0.00%    100.00% # Class of executed instruction
system.cpu.op_class::InstPrefetch                   0      0.00%    100.00% # Class of executed instruction
system.cpu.op_class::total                  644895733                       # Class of executed instruction
system.cpu.dcache.tags.replacements            202330                       # number of replacements
system.cpu.dcache.tags.tagsinuse          4088.009732                       # Cycle average of tags in use
system.cpu.dcache.tags.total_refs           254689490                       # Total number of references to valid blocks.
system.cpu.dcache.tags.sampled_refs            206426                       # Sample count of references to valid blocks.
system.cpu.dcache.tags.avg_refs           1233.805286                       # Average number of references to valid blocks.
system.cpu.dcache.tags.warmup_cycle        8479876500                       # Cycle when the warmup percentage was hit.
system.cpu.dcache.tags.occ_blocks::cpu.data  4088.009732                       # Average occupied blocks per requestor
system.cpu.dcache.tags.occ_percent::cpu.data     0.998049                       # Average percentage of cache occupancy
system.cpu.dcache.tags.occ_percent::total     0.998049                       # Average percentage of cache occupancy
system.cpu.dcache.tags.occ_task_id_blocks::1024         4096                       # Occupied blocks per task id
system.cpu.dcache.tags.age_task_id_blocks_1024::0            1                       # Occupied blocks per task id
system.cpu.dcache.tags.age_task_id_blocks_1024::2           18                       # Occupied blocks per task id
system.cpu.dcache.tags.age_task_id_blocks_1024::3         1515                       # Occupied blocks per task id
system.cpu.dcache.tags.age_task_id_blocks_1024::4         2562                       # Occupied blocks per task id
system.cpu.dcache.tags.occ_task_id_percent::1024            1                       # Percentage of cache occupancy per task id
system.cpu.dcache.tags.tag_accesses        2039373754                       # Number of tag accesses
system.cpu.dcache.tags.data_accesses       2039373754                       # Number of data accesses
system.cpu.dcache.ReadReq_hits::cpu.data    219155015                       # number of ReadReq hits
system.cpu.dcache.ReadReq_hits::total       219155015                       # number of ReadReq hits
system.cpu.dcache.WriteReq_hits::cpu.data     35532764                       # number of WriteReq hits
system.cpu.dcache.WriteReq_hits::total       35532764                       # number of WriteReq hits
system.cpu.dcache.SoftPFReq_hits::cpu.data         1711                       # number of SoftPFReq hits
system.cpu.dcache.SoftPFReq_hits::total          1711                       # number of SoftPFReq hits
system.cpu.dcache.demand_hits::cpu.data     254687779                       # number of demand (read+write) hits
system.cpu.dcache.demand_hits::total        254687779                       # number of demand (read+write) hits
system.cpu.dcache.overall_hits::cpu.data    254689490                       # number of overall hits
system.cpu.dcache.overall_hits::total       254689490                       # number of overall hits
system.cpu.dcache.ReadReq_misses::cpu.data        44510                       # number of ReadReq misses
system.cpu.dcache.ReadReq_misses::total         44510                       # number of ReadReq misses
system.cpu.dcache.WriteReq_misses::cpu.data       157509                       # number of WriteReq misses
system.cpu.dcache.WriteReq_misses::total       157509                       # number of WriteReq misses
system.cpu.dcache.SoftPFReq_misses::cpu.data         4407                       # number of SoftPFReq misses
system.cpu.dcache.SoftPFReq_misses::total         4407                       # number of SoftPFReq misses
system.cpu.dcache.demand_misses::cpu.data       202019                       # number of demand (read+write) misses
system.cpu.dcache.demand_misses::total         202019                       # number of demand (read+write) misses
system.cpu.dcache.overall_misses::cpu.data       206426                       # number of overall misses
system.cpu.dcache.overall_misses::total        206426                       # number of overall misses
system.cpu.dcache.ReadReq_miss_latency::cpu.data    656497000                       # number of ReadReq miss cycles
system.cpu.dcache.ReadReq_miss_latency::total    656497000                       # number of ReadReq miss cycles
system.cpu.dcache.WriteReq_miss_latency::cpu.data   2619791500                       # number of WriteReq miss cycles
system.cpu.dcache.WriteReq_miss_latency::total   2619791500                       # number of WriteReq miss cycles
system.cpu.dcache.demand_miss_latency::cpu.data   3276288500                       # number of demand (read+write) miss cycles
system.cpu.dcache.demand_miss_latency::total   3276288500                       # number of demand (read+write) miss cycles
system.cpu.dcache.overall_miss_latency::cpu.data   3276288500                       # number of overall miss cycles
system.cpu.dcache.overall_miss_latency::total   3276288500                       # number of overall miss cycles
system.cpu.dcache.ReadReq_accesses::cpu.data    219199525                       # number of ReadReq accesses(hits+misses)
system.cpu.dcache.ReadReq_accesses::total    219199525                       # number of ReadReq accesses(hits+misses)
system.cpu.dcache.WriteReq_accesses::cpu.data     35690273                       # number of WriteReq accesses(hits+misses)
system.cpu.dcache.WriteReq_accesses::total     35690273                       # number of WriteReq accesses(hits+misses)
system.cpu.dcache.SoftPFReq_accesses::cpu.data         6118                       # number of SoftPFReq accesses(hits+misses)
system.cpu.dcache.SoftPFReq_accesses::total         6118                       # number of SoftPFReq accesses(hits+misses)
system.cpu.dcache.demand_accesses::cpu.data    254889798                       # number of demand (read+write) accesses
system.cpu.dcache.demand_accesses::total    254889798                       # number of demand (read+write) accesses
system.cpu.dcache.overall_accesses::cpu.data    254895916                       # number of overall (read+write) accesses
system.cpu.dcache.overall_accesses::total    254895916                       # number of overall (read+write) accesses
system.cpu.dcache.ReadReq_miss_rate::cpu.data     0.000203                       # miss rate for ReadReq accesses
system.cpu.dcache.ReadReq_miss_rate::total     0.000203                       # miss rate for ReadReq accesses
system.cpu.dcache.WriteReq_miss_rate::cpu.data     0.004413                       # miss rate for WriteReq accesses
system.cpu.dcache.WriteReq_miss_rate::total     0.004413                       # miss rate for WriteReq accesses
system.cpu.dcache.SoftPFReq_miss_rate::cpu.data     0.720333                       # miss rate for SoftPFReq accesses
system.cpu.dcache.SoftPFReq_miss_rate::total     0.720333                       # miss rate for SoftPFReq accesses
system.cpu.dcache.demand_miss_rate::cpu.data     0.000793                       # miss rate for demand accesses
system.cpu.dcache.demand_miss_rate::total     0.000793                       # miss rate for demand accesses
system.cpu.dcache.overall_miss_rate::cpu.data     0.000810                       # miss rate for overall accesses
system.cpu.dcache.overall_miss_rate::total     0.000810                       # miss rate for overall accesses
system.cpu.dcache.ReadReq_avg_miss_latency::cpu.data 14749.427095                       # average ReadReq miss latency
system.cpu.dcache.ReadReq_avg_miss_latency::total 14749.427095                       # average ReadReq miss latency
system.cpu.dcache.WriteReq_avg_miss_latency::cpu.data 16632.646388                       # average WriteReq miss latency
system.cpu.dcache.WriteReq_avg_miss_latency::total 16632.646388                       # average WriteReq miss latency
system.cpu.dcache.demand_avg_miss_latency::cpu.data 16217.724570                       # average overall miss latency
system.cpu.dcache.demand_avg_miss_latency::total 16217.724570                       # average overall miss latency
system.cpu.dcache.overall_avg_miss_latency::cpu.data 15871.491479                       # average overall miss latency
system.cpu.dcache.overall_avg_miss_latency::total 15871.491479                       # average overall miss latency
system.cpu.dcache.blocked_cycles::no_mshrs           14                       # number of cycles access was blocked
system.cpu.dcache.blocked_cycles::no_targets            0                       # number of cycles access was blocked
system.cpu.dcache.blocked::no_mshrs                 1                       # number of cycles access was blocked
system.cpu.dcache.blocked::no_targets               0                       # number of cycles access was blocked
system.cpu.dcache.avg_blocked_cycles::no_mshrs           14                       # average number of cycles each access was blocked
system.cpu.dcache.avg_blocked_cycles::no_targets          nan                       # average number of cycles each access was blocked
system.cpu.dcache.fast_writes                       0                       # number of fast writes performed
system.cpu.dcache.cache_copies                      0                       # number of cache copies performed
system.cpu.dcache.writebacks::writebacks       199306                       # number of writebacks
system.cpu.dcache.writebacks::total            199306                       # number of writebacks
system.cpu.dcache.ReadReq_mshr_misses::cpu.data        44510                       # number of ReadReq MSHR misses
system.cpu.dcache.ReadReq_mshr_misses::total        44510                       # number of ReadReq MSHR misses
system.cpu.dcache.WriteReq_mshr_misses::cpu.data       157509                       # number of WriteReq MSHR misses
system.cpu.dcache.WriteReq_mshr_misses::total       157509                       # number of WriteReq MSHR misses
system.cpu.dcache.SoftPFReq_mshr_misses::cpu.data         4407                       # number of SoftPFReq MSHR misses
system.cpu.dcache.SoftPFReq_mshr_misses::total         4407                       # number of SoftPFReq MSHR misses
system.cpu.dcache.demand_mshr_misses::cpu.data       202019                       # number of demand (read+write) MSHR misses
system.cpu.dcache.demand_mshr_misses::total       202019                       # number of demand (read+write) MSHR misses
system.cpu.dcache.overall_mshr_misses::cpu.data       206426                       # number of overall MSHR misses
system.cpu.dcache.overall_mshr_misses::total       206426                       # number of overall MSHR misses
system.cpu.dcache.ReadReq_mshr_miss_latency::cpu.data    611987000                       # number of ReadReq MSHR miss cycles
system.cpu.dcache.ReadReq_mshr_miss_latency::total    611987000                       # number of ReadReq MSHR miss cycles
system.cpu.dcache.WriteReq_mshr_miss_latency::cpu.data   2462282500                       # number of WriteReq MSHR miss cycles
system.cpu.dcache.WriteReq_mshr_miss_latency::total   2462282500                       # number of WriteReq MSHR miss cycles
system.cpu.dcache.SoftPFReq_mshr_miss_latency::cpu.data    135547500                       # number of SoftPFReq MSHR miss cycles
system.cpu.dcache.SoftPFReq_mshr_miss_latency::total    135547500                       # number of SoftPFReq MSHR miss cycles
system.cpu.dcache.demand_mshr_miss_latency::cpu.data   3074269500                       # number of demand (read+write) MSHR miss cycles
system.cpu.dcache.demand_mshr_miss_latency::total   3074269500                       # number of demand (read+write) MSHR miss cycles
system.cpu.dcache.overall_mshr_miss_latency::cpu.data   3209817000                       # number of overall MSHR miss cycles
system.cpu.dcache.overall_mshr_miss_latency::total   3209817000                       # number of overall MSHR miss cycles
system.cpu.dcache.ReadReq_mshr_miss_rate::cpu.data     0.000203                       # mshr miss rate for ReadReq accesses
system.cpu.dcache.ReadReq_mshr_miss_rate::total     0.000203                       # mshr miss rate for ReadReq accesses
system.cpu.dcache.WriteReq_mshr_miss_rate::cpu.data     0.004413                       # mshr miss rate for WriteReq accesses
system.cpu.dcache.WriteReq_mshr_miss_rate::total     0.004413                       # mshr miss rate for WriteReq accesses
system.cpu.dcache.SoftPFReq_mshr_miss_rate::cpu.data     0.720333                       # mshr miss rate for SoftPFReq accesses
system.cpu.dcache.SoftPFReq_mshr_miss_rate::total     0.720333                       # mshr miss rate for SoftPFReq accesses
system.cpu.dcache.demand_mshr_miss_rate::cpu.data     0.000793                       # mshr miss rate for demand accesses
system.cpu.dcache.demand_mshr_miss_rate::total     0.000793                       # mshr miss rate for demand accesses
system.cpu.dcache.overall_mshr_miss_rate::cpu.data     0.000810                       # mshr miss rate for overall accesses
system.cpu.dcache.overall_mshr_miss_rate::total     0.000810                       # mshr miss rate for overall accesses
system.cpu.dcache.ReadReq_avg_mshr_miss_latency::cpu.data 13749.427095                       # average ReadReq mshr miss latency
system.cpu.dcache.ReadReq_avg_mshr_miss_latency::total 13749.427095                       # average ReadReq mshr miss latency
system.cpu.dcache.WriteReq_avg_mshr_miss_latency::cpu.data 15632.646388                       # average WriteReq mshr miss latency
system.cpu.dcache.WriteReq_avg_mshr_miss_latency::total 15632.646388                       # average WriteReq mshr miss latency
system.cpu.dcache.SoftPFReq_avg_mshr_miss_latency::cpu.data 30757.317903                       # average SoftPFReq mshr miss latency
system.cpu.dcache.SoftPFReq_avg_mshr_miss_latency::total 30757.317903                       # average SoftPFReq mshr miss latency
system.cpu.dcache.demand_avg_mshr_miss_latency::cpu.data 15217.724570                       # average overall mshr miss latency
system.cpu.dcache.demand_avg_mshr_miss_latency::total 15217.724570                       # average overall mshr miss latency
system.cpu.dcache.overall_avg_mshr_miss_latency::cpu.data 15549.480201                       # average overall mshr miss latency
system.cpu.dcache.overall_avg_mshr_miss_latency::total 15549.480201                       # average overall mshr miss latency
system.cpu.dcache.no_allocate_misses                0                       # Number of misses that were no-allocate
system.cpu.dtb_walker_cache.tags.replacements            0                       # number of replacements
system.cpu.dtb_walker_cache.tags.tagsinuse            0                       # Cycle average of tags in use
system.cpu.dtb_walker_cache.tags.total_refs            0                       # Total number of references to valid blocks.
system.cpu.dtb_walker_cache.tags.sampled_refs            0                       # Sample count of references to valid blocks.
system.cpu.dtb_walker_cache.tags.avg_refs          nan                       # Average number of references to valid blocks.
system.cpu.dtb_walker_cache.tags.warmup_cycle            0                       # Cycle when the warmup percentage was hit.
system.cpu.dtb_walker_cache.tags.tag_accesses            0                       # Number of tag accesses
system.cpu.dtb_walker_cache.tags.data_accesses            0                       # Number of data accesses
system.cpu.dtb_walker_cache.blocked_cycles::no_mshrs            0                       # number of cycles access was blocked
system.cpu.dtb_walker_cache.blocked_cycles::no_targets            0                       # number of cycles access was blocked
system.cpu.dtb_walker_cache.blocked::no_mshrs            0                       # number of cycles access was blocked
system.cpu.dtb_walker_cache.blocked::no_targets            0                       # number of cycles access was blocked
system.cpu.dtb_walker_cache.avg_blocked_cycles::no_mshrs          nan                       # average number of cycles each access was blocked
system.cpu.dtb_walker_cache.avg_blocked_cycles::no_targets          nan                       # average number of cycles each access was blocked
system.cpu.dtb_walker_cache.fast_writes             0                       # number of fast writes performed
system.cpu.dtb_walker_cache.cache_copies            0                       # number of cache copies performed
system.cpu.dtb_walker_cache.no_allocate_misses            0                       # Number of misses that were no-allocate
system.cpu.icache.tags.replacements                 4                       # number of replacements
system.cpu.icache.tags.tagsinuse          2260.777222                       # Cycle average of tags in use
system.cpu.icache.tags.total_refs           695975795                       # Total number of references to valid blocks.
system.cpu.icache.tags.sampled_refs              2270                       # Sample count of references to valid blocks.
system.cpu.icache.tags.avg_refs          306597.266520                       # Average number of references to valid blocks.
system.cpu.icache.tags.warmup_cycle                 0                       # Cycle when the warmup percentage was hit.
system.cpu.icache.tags.occ_blocks::cpu.inst  2260.777222                       # Average occupied blocks per requestor
system.cpu.icache.tags.occ_percent::cpu.inst     0.551948                       # Average percentage of cache occupancy
system.cpu.icache.tags.occ_percent::total     0.551948                       # Average percentage of cache occupancy
system.cpu.icache.tags.occ_task_id_blocks::1024         2266                       # Occupied blocks per task id
system.cpu.icache.tags.age_task_id_blocks_1024::4         2266                       # Occupied blocks per task id
system.cpu.icache.tags.occ_task_id_percent::1024     0.553223                       # Percentage of cache occupancy per task id
system.cpu.icache.tags.tag_accesses        5567826790                       # Number of tag accesses
system.cpu.icache.tags.data_accesses       5567826790                       # Number of data accesses
system.cpu.icache.ReadReq_hits::cpu.inst    695975795                       # number of ReadReq hits
system.cpu.icache.ReadReq_hits::total       695975795                       # number of ReadReq hits
system.cpu.icache.demand_hits::cpu.inst     695975795                       # number of demand (read+write) hits
system.cpu.icache.demand_hits::total        695975795                       # number of demand (read+write) hits
system.cpu.icache.overall_hits::cpu.inst    695975795                       # number of overall hits
system.cpu.icache.overall_hits::total       695975795                       # number of overall hits
system.cpu.icache.ReadReq_misses::cpu.inst         2270                       # number of ReadReq misses
system.cpu.icache.ReadReq_misses::total          2270                       # number of ReadReq misses
system.cpu.icache.demand_misses::cpu.inst         2270                       # number of demand (read+write) misses
system.cpu.icache.demand_misses::total           2270                       # number of demand (read+write) misses
system.cpu.icache.overall_misses::cpu.inst         2270                       # number of overall misses
system.cpu.icache.overall_misses::total          2270                       # number of overall misses
system.cpu.icache.ReadReq_miss_latency::cpu.inst    173933000                       # number of ReadReq miss cycles
system.cpu.icache.ReadReq_miss_latency::total    173933000                       # number of ReadReq miss cycles
system.cpu.icache.demand_miss_latency::cpu.inst    173933000                       # number of demand (read+write) miss cycles
system.cpu.icache.demand_miss_latency::total    173933000                       # number of demand (read+write) miss cycles
system.cpu.icache.overall_miss_latency::cpu.inst    173933000                       # number of overall miss cycles
system.cpu.icache.overall_miss_latency::total    173933000                       # number of overall miss cycles
system.cpu.icache.ReadReq_accesses::cpu.inst    695978065                       # number of ReadReq accesses(hits+misses)
system.cpu.icache.ReadReq_accesses::total    695978065                       # number of ReadReq accesses(hits+misses)
system.cpu.icache.demand_accesses::cpu.inst    695978065                       # number of demand (read+write) accesses
system.cpu.icache.demand_accesses::total    695978065                       # number of demand (read+write) accesses
system.cpu.icache.overall_accesses::cpu.inst    695978065                       # number of overall (read+write) accesses
system.cpu.icache.overall_accesses::total    695978065                       # number of overall (read+write) accesses
system.cpu.icache.ReadReq_miss_rate::cpu.inst     0.000003                       # miss rate for ReadReq accesses
system.cpu.icache.ReadReq_miss_rate::total     0.000003                       # miss rate for ReadReq accesses
system.cpu.icache.demand_miss_rate::cpu.inst     0.000003                       # miss rate for demand accesses
system.cpu.icache.demand_miss_rate::total     0.000003                       # miss rate for demand accesses
system.cpu.icache.overall_miss_rate::cpu.inst     0.000003                       # miss rate for overall accesses
system.cpu.icache.overall_miss_rate::total     0.000003                       # miss rate for overall accesses
system.cpu.icache.ReadReq_avg_miss_latency::cpu.inst 76622.466960                       # average ReadReq miss latency
system.cpu.icache.ReadReq_avg_miss_latency::total 76622.466960                       # average ReadReq miss latency
system.cpu.icache.demand_avg_miss_latency::cpu.inst 76622.466960                       # average overall miss latency
system.cpu.icache.demand_avg_miss_latency::total 76622.466960                       # average overall miss latency
system.cpu.icache.overall_avg_miss_latency::cpu.inst 76622.466960                       # average overall miss latency
system.cpu.icache.overall_avg_miss_latency::total 76622.466960                       # average overall miss latency
system.cpu.icache.blocked_cycles::no_mshrs            0                       # number of cycles access was blocked
system.cpu.icache.blocked_cycles::no_targets            0                       # number of cycles access was blocked
system.cpu.icache.blocked::no_mshrs                 0                       # number of cycles access was blocked
system.cpu.icache.blocked::no_targets               0                       # number of cycles access was blocked
system.cpu.icache.avg_blocked_cycles::no_mshrs          nan                       # average number of cycles each access was blocked
system.cpu.icache.avg_blocked_cycles::no_targets          nan                       # average number of cycles each access was blocked
system.cpu.icache.fast_writes                       0                       # number of fast writes performed
system.cpu.icache.cache_copies                      0                       # number of cache copies performed
system.cpu.icache.writebacks::writebacks            4                       # number of writebacks
system.cpu.icache.writebacks::total                 4                       # number of writebacks
system.cpu.icache.ReadReq_mshr_misses::cpu.inst         2270                       # number of ReadReq MSHR misses
system.cpu.icache.ReadReq_mshr_misses::total         2270                       # number of ReadReq MSHR misses
system.cpu.icache.demand_mshr_misses::cpu.inst         2270                       # number of demand (read+write) MSHR misses
system.cpu.icache.demand_mshr_misses::total         2270                       # number of demand (read+write) MSHR misses
system.cpu.icache.overall_mshr_misses::cpu.inst         2270                       # number of overall MSHR misses
system.cpu.icache.overall_mshr_misses::total         2270                       # number of overall MSHR misses
system.cpu.icache.ReadReq_mshr_miss_latency::cpu.inst    171663000                       # number of ReadReq MSHR miss cycles
system.cpu.icache.ReadReq_mshr_miss_latency::total    171663000                       # number of ReadReq MSHR miss cycles
system.cpu.icache.demand_mshr_miss_latency::cpu.inst    171663000                       # number of demand (read+write) MSHR miss cycles
system.cpu.icache.demand_mshr_miss_latency::total    171663000                       # number of demand (read+write) MSHR miss cycles
system.cpu.icache.overall_mshr_miss_latency::cpu.inst    171663000                       # number of overall MSHR miss cycles
system.cpu.icache.overall_mshr_miss_latency::total    171663000                       # number of overall MSHR miss cycles
system.cpu.icache.ReadReq_mshr_miss_rate::cpu.inst     0.000003                       # mshr miss rate for ReadReq accesses
system.cpu.icache.ReadReq_mshr_miss_rate::total     0.000003                       # mshr miss rate for ReadReq accesses
system.cpu.icache.demand_mshr_miss_rate::cpu.inst     0.000003                       # mshr miss rate for demand accesses
system.cpu.icache.demand_mshr_miss_rate::total     0.000003                       # mshr miss rate for demand accesses
system.cpu.icache.overall_mshr_miss_rate::cpu.inst     0.000003                       # mshr miss rate for overall accesses
system.cpu.icache.overall_mshr_miss_rate::total     0.000003                       # mshr miss rate for overall accesses
system.cpu.icache.ReadReq_avg_mshr_miss_latency::cpu.inst 75622.466960                       # average ReadReq mshr miss latency
system.cpu.icache.ReadReq_avg_mshr_miss_latency::total 75622.466960                       # average ReadReq mshr miss latency
system.cpu.icache.demand_avg_mshr_miss_latency::cpu.inst 75622.466960                       # average overall mshr miss latency
system.cpu.icache.demand_avg_mshr_miss_latency::total 75622.466960                       # average overall mshr miss latency
system.cpu.icache.overall_avg_mshr_miss_latency::cpu.inst 75622.466960                       # average overall mshr miss latency
system.cpu.icache.overall_avg_mshr_miss_latency::total 75622.466960                       # average overall mshr miss latency
system.cpu.icache.no_allocate_misses                0                       # Number of misses that were no-allocate
system.cpu.itb_walker_cache.tags.replacements            0                       # number of replacements
system.cpu.itb_walker_cache.tags.tagsinuse            0                       # Cycle average of tags in use
system.cpu.itb_walker_cache.tags.total_refs            0                       # Total number of references to valid blocks.
system.cpu.itb_walker_cache.tags.sampled_refs            0                       # Sample count of references to valid blocks.
system.cpu.itb_walker_cache.tags.avg_refs          nan                       # Average number of references to valid blocks.
system.cpu.itb_walker_cache.tags.warmup_cycle            0                       # Cycle when the warmup percentage was hit.
system.cpu.itb_walker_cache.tags.tag_accesses            0                       # Number of tag accesses
system.cpu.itb_walker_cache.tags.data_accesses            0                       # Number of data accesses
system.cpu.itb_walker_cache.blocked_cycles::no_mshrs            0                       # number of cycles access was blocked
system.cpu.itb_walker_cache.blocked_cycles::no_targets            0                       # number of cycles access was blocked
system.cpu.itb_walker_cache.blocked::no_mshrs            0                       # number of cycles access was blocked
system.cpu.itb_walker_cache.blocked::no_targets            0                       # number of cycles access was blocked
system.cpu.itb_walker_cache.avg_blocked_cycles::no_mshrs          nan                       # average number of cycles each access was blocked
system.cpu.itb_walker_cache.avg_blocked_cycles::no_targets          nan                       # average number of cycles each access was blocked
system.cpu.itb_walker_cache.fast_writes             0                       # number of fast writes performed
system.cpu.itb_walker_cache.cache_copies            0                       # number of cache copies performed
system.cpu.itb_walker_cache.no_allocate_misses            0                       # Number of misses that were no-allocate
system.l2.tags.replacements                       587                       # number of replacements
system.l2.tags.tagsinuse                  8752.141664                       # Cycle average of tags in use
system.l2.tags.total_refs                      151755                       # Total number of references to valid blocks.
system.l2.tags.sampled_refs                     10194                       # Sample count of references to valid blocks.
system.l2.tags.avg_refs                     14.886698                       # Average number of references to valid blocks.
system.l2.tags.warmup_cycle                         0                       # Cycle when the warmup percentage was hit.
system.l2.tags.occ_blocks::writebacks     5982.213452                       # Average occupied blocks per requestor
system.l2.tags.occ_blocks::cpu.inst       1815.414534                       # Average occupied blocks per requestor
system.l2.tags.occ_blocks::cpu.data        954.513678                       # Average occupied blocks per requestor
system.l2.tags.occ_percent::writebacks       0.182563                       # Average percentage of cache occupancy
system.l2.tags.occ_percent::cpu.inst         0.055402                       # Average percentage of cache occupancy
system.l2.tags.occ_percent::cpu.data         0.029129                       # Average percentage of cache occupancy
system.l2.tags.occ_percent::total            0.267094                       # Average percentage of cache occupancy
system.l2.tags.occ_task_id_blocks::1024          9607                       # Occupied blocks per task id
system.l2.tags.age_task_id_blocks_1024::0            1                       # Occupied blocks per task id
system.l2.tags.age_task_id_blocks_1024::2            3                       # Occupied blocks per task id
system.l2.tags.age_task_id_blocks_1024::3          402                       # Occupied blocks per task id
system.l2.tags.age_task_id_blocks_1024::4         9201                       # Occupied blocks per task id
system.l2.tags.occ_task_id_percent::1024     0.293182                       # Percentage of cache occupancy per task id
system.l2.tags.tag_accesses                    578733                       # Number of tag accesses
system.l2.tags.data_accesses                   578733                       # Number of data accesses
system.l2.WritebackDirty_hits::writebacks       199306                       # number of WritebackDirty hits
system.l2.WritebackDirty_hits::total           199306                       # number of WritebackDirty hits
system.l2.WritebackClean_hits::writebacks            4                       # number of WritebackClean hits
system.l2.WritebackClean_hits::total                4                       # number of WritebackClean hits
system.l2.ReadExReq_hits::cpu.data             148797                       # number of ReadExReq hits
system.l2.ReadExReq_hits::total                148797                       # number of ReadExReq hits
system.l2.ReadSharedReq_hits::cpu.data          46462                       # number of ReadSharedReq hits
system.l2.ReadSharedReq_hits::total             46462                       # number of ReadSharedReq hits
system.l2.demand_hits::cpu.data                195259                       # number of demand (read+write) hits
system.l2.demand_hits::total                   195259                       # number of demand (read+write) hits
system.l2.overall_hits::cpu.data               195259                       # number of overall hits
system.l2.overall_hits::total                  195259                       # number of overall hits
system.l2.ReadExReq_misses::cpu.data             8712                       # number of ReadExReq misses
system.l2.ReadExReq_misses::total                8712                       # number of ReadExReq misses
system.l2.ReadCleanReq_misses::cpu.inst          2270                       # number of ReadCleanReq misses
system.l2.ReadCleanReq_misses::total             2270                       # number of ReadCleanReq misses
system.l2.ReadSharedReq_misses::cpu.data         2455                       # number of ReadSharedReq misses
system.l2.ReadSharedReq_misses::total            2455                       # number of ReadSharedReq misses
system.l2.demand_misses::cpu.inst                2270                       # number of demand (read+write) misses
system.l2.demand_misses::cpu.data               11167                       # number of demand (read+write) misses
system.l2.demand_misses::total                  13437                       # number of demand (read+write) misses
system.l2.overall_misses::cpu.inst               2270                       # number of overall misses
system.l2.overall_misses::cpu.data              11167                       # number of overall misses
system.l2.overall_misses::total                 13437                       # number of overall misses
system.l2.ReadExReq_miss_latency::cpu.data    663650500                       # number of ReadExReq miss cycles
system.l2.ReadExReq_miss_latency::total     663650500                       # number of ReadExReq miss cycles
system.l2.ReadCleanReq_miss_latency::cpu.inst    168258000                       # number of ReadCleanReq miss cycles
system.l2.ReadCleanReq_miss_latency::total    168258000                       # number of ReadCleanReq miss cycles
system.l2.ReadSharedReq_miss_latency::cpu.data    186307000                       # number of ReadSharedReq miss cycles
system.l2.ReadSharedReq_miss_latency::total    186307000                       # number of ReadSharedReq miss cycles
system.l2.demand_miss_latency::cpu.inst     168258000                       # number of demand (read+write) miss cycles
system.l2.demand_miss_latency::cpu.data     849957500                       # number of demand (read+write) miss cycles
system.l2.demand_miss_latency::total       1018215500                       # number of demand (read+write) miss cycles
system.l2.overall_miss_latency::cpu.inst    168258000                       # number of overall miss cycles
system.l2.overall_miss_latency::cpu.data    849957500                       # number of overall miss cycles
system.l2.overall_miss_latency::total      1018215500                       # number of overall miss cycles
system.l2.WritebackDirty_accesses::writebacks       199306                       # number of WritebackDirty accesses(hits+misses)
system.l2.WritebackDirty_accesses::total       199306                       # number of WritebackDirty accesses(hits+misses)
system.l2.WritebackClean_accesses::writebacks            4                       # number of WritebackClean accesses(hits+misses)
system.l2.WritebackClean_accesses::total            4                       # number of WritebackClean accesses(hits+misses)
system.l2.ReadExReq_accesses::cpu.data         157509                       # number of ReadExReq accesses(hits+misses)
system.l2.ReadExReq_accesses::total            157509                       # number of ReadExReq accesses(hits+misses)
system.l2.ReadCleanReq_accesses::cpu.inst         2270                       # number of ReadCleanReq accesses(hits+misses)
system.l2.ReadCleanReq_accesses::total           2270                       # number of ReadCleanReq accesses(hits+misses)
system.l2.ReadSharedReq_accesses::cpu.data        48917                       # number of ReadSharedReq accesses(hits+misses)
system.l2.ReadSharedReq_accesses::total         48917                       # number of ReadSharedReq accesses(hits+misses)
system.l2.demand_accesses::cpu.inst              2270                       # number of demand (read+write) accesses
system.l2.demand_accesses::cpu.data            206426                       # number of demand (read+write) accesses
system.l2.demand_accesses::total               208696                       # number of demand (read+write) accesses
system.l2.overall_accesses::cpu.inst             2270                       # number of overall (read+write) accesses
system.l2.overall_accesses::cpu.data           206426                       # number of overall (read+write) accesses
system.l2.overall_accesses::total              208696                       # number of overall (read+write) accesses
system.l2.ReadExReq_miss_rate::cpu.data      0.055311                       # miss rate for ReadExReq accesses
system.l2.ReadExReq_miss_rate::total         0.055311                       # miss rate for ReadExReq accesses
system.l2.ReadCleanReq_miss_rate::cpu.inst            1                       # miss rate for ReadCleanReq accesses
system.l2.ReadCleanReq_miss_rate::total             1                       # miss rate for ReadCleanReq accesses
system.l2.ReadSharedReq_miss_rate::cpu.data     0.050187                       # miss rate for ReadSharedReq accesses
system.l2.ReadSharedReq_miss_rate::total     0.050187                       # miss rate for ReadSharedReq accesses
system.l2.demand_miss_rate::cpu.inst                1                       # miss rate for demand accesses
system.l2.demand_miss_rate::cpu.data         0.054097                       # miss rate for demand accesses
system.l2.demand_miss_rate::total            0.064386                       # miss rate for demand accesses
system.l2.overall_miss_rate::cpu.inst               1                       # miss rate for overall accesses
system.l2.overall_miss_rate::cpu.data        0.054097                       # miss rate for overall accesses
system.l2.overall_miss_rate::total           0.064386                       # miss rate for overall accesses
system.l2.ReadExReq_avg_miss_latency::cpu.data 76176.595500                       # average ReadExReq miss latency
system.l2.ReadExReq_avg_miss_latency::total 76176.595500                       # average ReadExReq miss latency
system.l2.ReadCleanReq_avg_miss_latency::cpu.inst 74122.466960                       # average ReadCleanReq miss latency
system.l2.ReadCleanReq_avg_miss_latency::total 74122.466960                       # average ReadCleanReq miss latency
system.l2.ReadSharedReq_avg_miss_latency::cpu.data 75888.798371                       # average ReadSharedReq miss latency
system.l2.ReadSharedReq_avg_miss_latency::total 75888.798371                       # average ReadSharedReq miss latency
system.l2.demand_avg_miss_latency::cpu.inst 74122.466960                       # average overall miss latency
system.l2.demand_avg_miss_latency::cpu.data 76113.324975                       # average overall miss latency
system.l2.demand_avg_miss_latency::total 75776.996353                       # average overall miss latency
system.l2.overall_avg_miss_latency::cpu.inst 74122.466960                       # average overall miss latency
system.l2.overall_avg_miss_latency::cpu.data 76113.324975                       # average overall miss latency
system.l2.overall_avg_miss_latency::total 75776.996353                       # average overall miss latency
system.l2.blocked_cycles::no_mshrs                  0                       # number of cycles access was blocked
system.l2.blocked_cycles::no_targets                0                       # number of cycles access was blocked
system.l2.blocked::no_mshrs                         0                       # number of cycles access was blocked
system.l2.blocked::no_targets                       0                       # number of cycles access was blocked
system.l2.avg_blocked_cycles::no_mshrs            nan                       # average number of cycles each access was blocked
system.l2.avg_blocked_cycles::no_targets          nan                       # average number of cycles each access was blocked
system.l2.fast_writes                               0                       # number of fast writes performed
system.l2.cache_copies                              0                       # number of cache copies performed
system.l2.writebacks::writebacks                   15                       # number of writebacks
system.l2.writebacks::total                        15                       # number of writebacks
system.l2.CleanEvict_mshr_misses::writebacks           80                       # number of CleanEvict MSHR misses
system.l2.CleanEvict_mshr_misses::total            80                       # number of CleanEvict MSHR misses
system.l2.ReadExReq_mshr_misses::cpu.data         8712                       # number of ReadExReq MSHR misses
system.l2.ReadExReq_mshr_misses::total           8712                       # number of ReadExReq MSHR misses
system.l2.ReadCleanReq_mshr_misses::cpu.inst         2270                       # number of ReadCleanReq MSHR misses
system.l2.ReadCleanReq_mshr_misses::total         2270                       # number of ReadCleanReq MSHR misses
system.l2.ReadSharedReq_mshr_misses::cpu.data         2455                       # number of ReadSharedReq MSHR misses
system.l2.ReadSharedReq_mshr_misses::total         2455                       # number of ReadSharedReq MSHR misses
system.l2.demand_mshr_misses::cpu.inst           2270                       # number of demand (read+write) MSHR misses
system.l2.demand_mshr_misses::cpu.data          11167                       # number of demand (read+write) MSHR misses
system.l2.demand_mshr_misses::total             13437                       # number of demand (read+write) MSHR misses
system.l2.overall_mshr_misses::cpu.inst          2270                       # number of overall MSHR misses
system.l2.overall_mshr_misses::cpu.data         11167                       # number of overall MSHR misses
system.l2.overall_mshr_misses::total            13437                       # number of overall MSHR misses
system.l2.ReadExReq_mshr_miss_latency::cpu.data    576530500                       # number of ReadExReq MSHR miss cycles
system.l2.ReadExReq_mshr_miss_latency::total    576530500                       # number of ReadExReq MSHR miss cycles
system.l2.ReadCleanReq_mshr_miss_latency::cpu.inst    145558000                       # number of ReadCleanReq MSHR miss cycles
system.l2.ReadCleanReq_mshr_miss_latency::total    145558000                       # number of ReadCleanReq MSHR miss cycles
system.l2.ReadSharedReq_mshr_miss_latency::cpu.data    161757000                       # number of ReadSharedReq MSHR miss cycles
system.l2.ReadSharedReq_mshr_miss_latency::total    161757000                       # number of ReadSharedReq MSHR miss cycles
system.l2.demand_mshr_miss_latency::cpu.inst    145558000                       # number of demand (read+write) MSHR miss cycles
system.l2.demand_mshr_miss_latency::cpu.data    738287500                       # number of demand (read+write) MSHR miss cycles
system.l2.demand_mshr_miss_latency::total    883845500                       # number of demand (read+write) MSHR miss cycles
system.l2.overall_mshr_miss_latency::cpu.inst    145558000                       # number of overall MSHR miss cycles
system.l2.overall_mshr_miss_latency::cpu.data    738287500                       # number of overall MSHR miss cycles
system.l2.overall_mshr_miss_latency::total    883845500                       # number of overall MSHR miss cycles
system.l2.CleanEvict_mshr_miss_rate::writebacks          inf                       # mshr miss rate for CleanEvict accesses
system.l2.CleanEvict_mshr_miss_rate::total          inf                       # mshr miss rate for CleanEvict accesses
system.l2.ReadExReq_mshr_miss_rate::cpu.data     0.055311                       # mshr miss rate for ReadExReq accesses
system.l2.ReadExReq_mshr_miss_rate::total     0.055311                       # mshr miss rate for ReadExReq accesses
system.l2.ReadCleanReq_mshr_miss_rate::cpu.inst            1                       # mshr miss rate for ReadCleanReq accesses
system.l2.ReadCleanReq_mshr_miss_rate::total            1                       # mshr miss rate for ReadCleanReq accesses
system.l2.ReadSharedReq_mshr_miss_rate::cpu.data     0.050187                       # mshr miss rate for ReadSharedReq accesses
system.l2.ReadSharedReq_mshr_miss_rate::total     0.050187                       # mshr miss rate for ReadSharedReq accesses
system.l2.demand_mshr_miss_rate::cpu.inst            1                       # mshr miss rate for demand accesses
system.l2.demand_mshr_miss_rate::cpu.data     0.054097                       # mshr miss rate for demand accesses
system.l2.demand_mshr_miss_rate::total       0.064386                       # mshr miss rate for demand accesses
system.l2.overall_mshr_miss_rate::cpu.inst            1                       # mshr miss rate for overall accesses
system.l2.overall_mshr_miss_rate::cpu.data     0.054097                       # mshr miss rate for overall accesses
system.l2.overall_mshr_miss_rate::total      0.064386                       # mshr miss rate for overall accesses
system.l2.ReadExReq_avg_mshr_miss_latency::cpu.data 66176.595500                       # average ReadExReq mshr miss latency
system.l2.ReadExReq_avg_mshr_miss_latency::total 66176.595500                       # average ReadExReq mshr miss latency
system.l2.ReadCleanReq_avg_mshr_miss_latency::cpu.inst 64122.466960                       # average ReadCleanReq mshr miss latency
system.l2.ReadCleanReq_avg_mshr_miss_latency::total 64122.466960                       # average ReadCleanReq mshr miss latency
system.l2.ReadSharedReq_avg_mshr_miss_latency::cpu.data 65888.798371                       # average ReadSharedReq mshr miss latency
system.l2.ReadSharedReq_avg_mshr_miss_latency::total 65888.798371                       # average ReadSharedReq mshr miss latency
system.l2.demand_avg_mshr_miss_latency::cpu.inst 64122.466960                       # average overall mshr miss latency
system.l2.demand_avg_mshr_miss_latency::cpu.data 66113.324975                       # average overall mshr miss latency
system.l2.demand_avg_mshr_miss_latency::total 65776.996353                       # average overall mshr miss latency
system.l2.overall_avg_mshr_miss_latency::cpu.inst 64122.466960                       # average overall mshr miss latency
system.l2.overall_avg_mshr_miss_latency::cpu.data 66113.324975                       # average overall mshr miss latency
system.l2.overall_avg_mshr_miss_latency::total 65776.996353                       # average overall mshr miss latency
system.l2.no_allocate_misses                        0                       # Number of misses that were no-allocate
system.membus.trans_dist::ReadResp               4725                       # Transaction distribution
system.membus.trans_dist::WritebackDirty           15                       # Transaction distribution
system.membus.trans_dist::CleanEvict               83                       # Transaction distribution
system.membus.trans_dist::ReadExReq              8712                       # Transaction distribution
system.membus.trans_dist::ReadExResp             8712                       # Transaction distribution
system.membus.trans_dist::ReadSharedReq          4725                       # Transaction distribution
system.membus.pkt_count_system.l2.mem_side::system.mem_ctrls.port        26972                       # Packet count per connected master and slave (bytes)
system.membus.pkt_count_system.l2.mem_side::total        26972                       # Packet count per connected master and slave (bytes)
system.membus.pkt_count::total                  26972                       # Packet count per connected master and slave (bytes)
system.membus.pkt_size_system.l2.mem_side::system.mem_ctrls.port       430464                       # Cumulative packet size per connected master and slave (bytes)
system.membus.pkt_size_system.l2.mem_side::total       430464                       # Cumulative packet size per connected master and slave (bytes)
system.membus.pkt_size::total                  430464                       # Cumulative packet size per connected master and slave (bytes)
system.membus.snoops                                0                       # Total snoops (count)
system.membus.snoop_fanout::samples             13535                       # Request fanout histogram
system.membus.snoop_fanout::mean                    0                       # Request fanout histogram
system.membus.snoop_fanout::stdev                   0                       # Request fanout histogram
system.membus.snoop_fanout::underflows              0      0.00%      0.00% # Request fanout histogram
system.membus.snoop_fanout::0                   13535    100.00%    100.00% # Request fanout histogram
system.membus.snoop_fanout::1                       0      0.00%    100.00% # Request fanout histogram
system.membus.snoop_fanout::overflows               0      0.00%    100.00% # Request fanout histogram
system.membus.snoop_fanout::min_value               0                       # Request fanout histogram
system.membus.snoop_fanout::max_value               0                       # Request fanout histogram
system.membus.snoop_fanout::total               13535                       # Request fanout histogram
system.membus.reqLayer2.occupancy            13675000                       # Layer occupancy (ticks)
system.membus.reqLayer2.utilization               0.0                       # Layer utilization (%)
system.membus.respLayer1.occupancy           44527500                       # Layer occupancy (ticks)
system.membus.respLayer1.utilization              0.0                       # Layer utilization (%)
system.tol2bus.snoop_filter.tot_requests       411030                       # Total number of requests made to the snoop filter.
system.tol2bus.snoop_filter.hit_single_requests       202334                       # Number of requests hitting in the snoop filter with a single holder of the requested data.
system.tol2bus.snoop_filter.hit_multi_requests            0                       # Number of requests hitting in the snoop filter with multiple (>1) holders of the requested data.
system.tol2bus.snoop_filter.tot_snoops            569                       # Total number of snoops made to the snoop filter.
system.tol2bus.snoop_filter.hit_single_snoops          569                       # Number of snoops hitting in the snoop filter with a single holder of the requested data.
system.tol2bus.snoop_filter.hit_multi_snoops            0                       # Number of snoops hitting in the snoop filter with multiple (>1) holders of the requested data.
system.tol2bus.trans_dist::ReadResp             51187                       # Transaction distribution
system.tol2bus.trans_dist::WritebackDirty       199321                       # Transaction distribution
system.tol2bus.trans_dist::WritebackClean            4                       # Transaction distribution
system.tol2bus.trans_dist::CleanEvict            3596                       # Transaction distribution
system.tol2bus.trans_dist::ReadExReq           157509                       # Transaction distribution
system.tol2bus.trans_dist::ReadExResp          157509                       # Transaction distribution
system.tol2bus.trans_dist::ReadCleanReq          2270                       # Transaction distribution
system.tol2bus.trans_dist::ReadSharedReq        48917                       # Transaction distribution
system.tol2bus.pkt_count_system.cpu.icache.mem_side::system.l2.cpu_side         4544                       # Packet count per connected master and slave (bytes)
system.tol2bus.pkt_count_system.cpu.dcache.mem_side::system.l2.cpu_side       615182                       # Packet count per connected master and slave (bytes)
system.tol2bus.pkt_count::total                619726                       # Packet count per connected master and slave (bytes)
system.tol2bus.pkt_size_system.cpu.icache.mem_side::system.l2.cpu_side        72768                       # Cumulative packet size per connected master and slave (bytes)
system.tol2bus.pkt_size_system.cpu.dcache.mem_side::system.l2.cpu_side     12983424                       # Cumulative packet size per connected master and slave (bytes)
system.tol2bus.pkt_size::total               13056192                       # Cumulative packet size per connected master and slave (bytes)
system.tol2bus.snoops                             587                       # Total snoops (count)
system.tol2bus.snoop_fanout::samples           209283                       # Request fanout histogram
system.tol2bus.snoop_fanout::mean            0.002719                       # Request fanout histogram
system.tol2bus.snoop_fanout::stdev           0.052071                       # Request fanout histogram
system.tol2bus.snoop_fanout::underflows             0      0.00%      0.00% # Request fanout histogram
system.tol2bus.snoop_fanout::0                 208714     99.73%     99.73% # Request fanout histogram
system.tol2bus.snoop_fanout::1                    569      0.27%    100.00% # Request fanout histogram
system.tol2bus.snoop_fanout::2                      0      0.00%    100.00% # Request fanout histogram
system.tol2bus.snoop_fanout::3                      0      0.00%    100.00% # Request fanout histogram
system.tol2bus.snoop_fanout::4                      0      0.00%    100.00% # Request fanout histogram
system.tol2bus.snoop_fanout::overflows              0      0.00%    100.00% # Request fanout histogram
system.tol2bus.snoop_fanout::min_value              0                       # Request fanout histogram
system.tol2bus.snoop_fanout::max_value              1                       # Request fanout histogram
system.tol2bus.snoop_fanout::total             209283                       # Request fanout histogram
system.tol2bus.reqLayer0.occupancy          305170000                       # Layer occupancy (ticks)
system.tol2bus.reqLayer0.utilization              0.0                       # Layer utilization (%)
system.tol2bus.respLayer0.occupancy           2270000                       # Layer occupancy (ticks)
system.tol2bus.respLayer0.utilization             0.0                       # Layer utilization (%)
system.tol2bus.respLayer1.occupancy         206426000                       # Layer occupancy (ticks)
system.tol2bus.respLayer1.utilization             0.0                       # Layer utilization (%)

---------- End Simulation Statistics   ----------
