
---------- Begin Simulation Statistics ----------
sim_seconds                                  0.952935                       # Number of seconds simulated
sim_ticks                                952934563500                       # Number of ticks simulated
final_tick                               952934563500                       # Number of ticks from beginning of simulation (restored from checkpoints and never reset)
sim_freq                                 1000000000000                       # Frequency of simulated ticks
host_inst_rate                                 786113                       # Simulator instruction rate (inst/s)
host_op_rate                                  1013922                       # Simulator op (including micro ops) rate (op/s)
host_tick_rate                             1498228318                       # Simulator tick rate (ticks/s)
host_mem_usage                                 833548                       # Number of bytes of host memory used
host_seconds                                   636.04                       # Real time elapsed on the host
sim_insts                                   500000000                       # Number of instructions simulated
sim_ops                                     644895733                       # Number of ops (including micro ops) simulated
system.voltage_domain.voltage                       1                       # Voltage in Volts
system.clk_domain.clock                          1000                       # Clock period in ticks
system.mem_ctrls.bytes_read::cpu.inst           84544                       # Number of bytes read from this memory
system.mem_ctrls.bytes_read::cpu.data          365760                       # Number of bytes read from this memory
system.mem_ctrls.bytes_read::total             450304                       # Number of bytes read from this memory
system.mem_ctrls.bytes_inst_read::cpu.inst        84544                       # Number of instructions bytes read from this memory
system.mem_ctrls.bytes_inst_read::total         84544                       # Number of instructions bytes read from this memory
system.mem_ctrls.bytes_written::writebacks          640                       # Number of bytes written to this memory
system.mem_ctrls.bytes_written::total             640                       # Number of bytes written to this memory
system.mem_ctrls.num_reads::cpu.inst             1321                       # Number of read requests responded to by this memory
system.mem_ctrls.num_reads::cpu.data             5715                       # Number of read requests responded to by this memory
system.mem_ctrls.num_reads::total                7036                       # Number of read requests responded to by this memory
system.mem_ctrls.num_writes::writebacks            10                       # Number of write requests responded to by this memory
system.mem_ctrls.num_writes::total                 10                       # Number of write requests responded to by this memory
system.mem_ctrls.bw_read::cpu.inst              88720                       # Total read bandwidth from this memory (bytes/s)
system.mem_ctrls.bw_read::cpu.data             383825                       # Total read bandwidth from this memory (bytes/s)
system.mem_ctrls.bw_read::total                472545                       # Total read bandwidth from this memory (bytes/s)
system.mem_ctrls.bw_inst_read::cpu.inst         88720                       # Instruction read bandwidth from this memory (bytes/s)
system.mem_ctrls.bw_inst_read::total            88720                       # Instruction read bandwidth from this memory (bytes/s)
system.mem_ctrls.bw_write::writebacks             672                       # Write bandwidth from this memory (bytes/s)
system.mem_ctrls.bw_write::total                  672                       # Write bandwidth from this memory (bytes/s)
system.mem_ctrls.bw_total::writebacks             672                       # Total bandwidth to/from this memory (bytes/s)
system.mem_ctrls.bw_total::cpu.inst             88720                       # Total bandwidth to/from this memory (bytes/s)
system.mem_ctrls.bw_total::cpu.data            383825                       # Total bandwidth to/from this memory (bytes/s)
system.mem_ctrls.bw_total::total               473216                       # Total bandwidth to/from this memory (bytes/s)
system.mem_ctrls.readReqs                        7036                       # Number of read requests accepted
system.mem_ctrls.writeReqs                         10                       # Number of write requests accepted
system.mem_ctrls.readBursts                      7036                       # Number of DRAM read bursts, including those serviced by the write queue
system.mem_ctrls.writeBursts                       10                       # Number of DRAM write bursts, including those merged in the write queue
system.mem_ctrls.bytesReadDRAM                 450240                       # Total number of bytes read from DRAM
system.mem_ctrls.bytesReadWrQ                      64                       # Total number of bytes read from write queue
system.mem_ctrls.bytesWritten                       0                       # Total number of bytes written to DRAM
system.mem_ctrls.bytesReadSys                  450304                       # Total read bytes from the system interface side
system.mem_ctrls.bytesWrittenSys                  640                       # Total written bytes from the system interface side
system.mem_ctrls.servicedByWrQ                      1                       # Number of DRAM read bursts serviced by the write queue
system.mem_ctrls.mergedWrBursts                     0                       # Number of DRAM write bursts merged with an existing one
system.mem_ctrls.neitherReadNorWriteReqs           64                       # Number of requests that are neither read nor write
system.mem_ctrls.perBankRdBursts::0               315                       # Per bank write bursts
system.mem_ctrls.perBankRdBursts::1               346                       # Per bank write bursts
system.mem_ctrls.perBankRdBursts::2               432                       # Per bank write bursts
system.mem_ctrls.perBankRdBursts::3               318                       # Per bank write bursts
system.mem_ctrls.perBankRdBursts::4               471                       # Per bank write bursts
system.mem_ctrls.perBankRdBursts::5               410                       # Per bank write bursts
system.mem_ctrls.perBankRdBursts::6               341                       # Per bank write bursts
system.mem_ctrls.perBankRdBursts::7               412                       # Per bank write bursts
system.mem_ctrls.perBankRdBursts::8               509                       # Per bank write bursts
system.mem_ctrls.perBankRdBursts::9               514                       # Per bank write bursts
system.mem_ctrls.perBankRdBursts::10              555                       # Per bank write bursts
system.mem_ctrls.perBankRdBursts::11              591                       # Per bank write bursts
system.mem_ctrls.perBankRdBursts::12              493                       # Per bank write bursts
system.mem_ctrls.perBankRdBursts::13              448                       # Per bank write bursts
system.mem_ctrls.perBankRdBursts::14              431                       # Per bank write bursts
system.mem_ctrls.perBankRdBursts::15              449                       # Per bank write bursts
system.mem_ctrls.perBankWrBursts::0                 0                       # Per bank write bursts
system.mem_ctrls.perBankWrBursts::1                 0                       # Per bank write bursts
system.mem_ctrls.perBankWrBursts::2                 0                       # Per bank write bursts
system.mem_ctrls.perBankWrBursts::3                 0                       # Per bank write bursts
system.mem_ctrls.perBankWrBursts::4                 0                       # Per bank write bursts
system.mem_ctrls.perBankWrBursts::5                 0                       # Per bank write bursts
system.mem_ctrls.perBankWrBursts::6                 0                       # Per bank write bursts
system.mem_ctrls.perBankWrBursts::7                 0                       # Per bank write bursts
system.mem_ctrls.perBankWrBursts::8                 0                       # Per bank write bursts
system.mem_ctrls.perBankWrBursts::9                 0                       # Per bank write bursts
system.mem_ctrls.perBankWrBursts::10                0                       # Per bank write bursts
system.mem_ctrls.perBankWrBursts::11                0                       # Per bank write bursts
system.mem_ctrls.perBankWrBursts::12                0                       # Per bank write bursts
system.mem_ctrls.perBankWrBursts::13                0                       # Per bank write bursts
system.mem_ctrls.perBankWrBursts::14                0                       # Per bank write bursts
system.mem_ctrls.perBankWrBursts::15                0                       # Per bank write bursts
system.mem_ctrls.numRdRetry                         0                       # Number of times read queue was full causing retry
system.mem_ctrls.numWrRetry                         0                       # Number of times write queue was full causing retry
system.mem_ctrls.totGap                  339317673500                       # Total gap between requests
system.mem_ctrls.readPktSize::0                     0                       # Read request sizes (log2)
system.mem_ctrls.readPktSize::1                     0                       # Read request sizes (log2)
system.mem_ctrls.readPktSize::2                     0                       # Read request sizes (log2)
system.mem_ctrls.readPktSize::3                     0                       # Read request sizes (log2)
system.mem_ctrls.readPktSize::4                     0                       # Read request sizes (log2)
system.mem_ctrls.readPktSize::5                     0                       # Read request sizes (log2)
system.mem_ctrls.readPktSize::6                  7036                       # Read request sizes (log2)
system.mem_ctrls.writePktSize::0                    0                       # Write request sizes (log2)
system.mem_ctrls.writePktSize::1                    0                       # Write request sizes (log2)
system.mem_ctrls.writePktSize::2                    0                       # Write request sizes (log2)
system.mem_ctrls.writePktSize::3                    0                       # Write request sizes (log2)
system.mem_ctrls.writePktSize::4                    0                       # Write request sizes (log2)
system.mem_ctrls.writePktSize::5                    0                       # Write request sizes (log2)
system.mem_ctrls.writePktSize::6                   10                       # Write request sizes (log2)
system.mem_ctrls.rdQLenPdf::0                    6356                       # What read queue length does an incoming req see
system.mem_ctrls.rdQLenPdf::1                     636                       # What read queue length does an incoming req see
system.mem_ctrls.rdQLenPdf::2                      37                       # What read queue length does an incoming req see
system.mem_ctrls.rdQLenPdf::3                       6                       # What read queue length does an incoming req see
system.mem_ctrls.rdQLenPdf::4                       0                       # What read queue length does an incoming req see
system.mem_ctrls.rdQLenPdf::5                       0                       # What read queue length does an incoming req see
system.mem_ctrls.rdQLenPdf::6                       0                       # What read queue length does an incoming req see
system.mem_ctrls.rdQLenPdf::7                       0                       # What read queue length does an incoming req see
system.mem_ctrls.rdQLenPdf::8                       0                       # What read queue length does an incoming req see
system.mem_ctrls.rdQLenPdf::9                       0                       # What read queue length does an incoming req see
system.mem_ctrls.rdQLenPdf::10                      0                       # What read queue length does an incoming req see
system.mem_ctrls.rdQLenPdf::11                      0                       # What read queue length does an incoming req see
system.mem_ctrls.rdQLenPdf::12                      0                       # What read queue length does an incoming req see
system.mem_ctrls.rdQLenPdf::13                      0                       # What read queue length does an incoming req see
system.mem_ctrls.rdQLenPdf::14                      0                       # What read queue length does an incoming req see
system.mem_ctrls.rdQLenPdf::15                      0                       # What read queue length does an incoming req see
system.mem_ctrls.rdQLenPdf::16                      0                       # What read queue length does an incoming req see
system.mem_ctrls.rdQLenPdf::17                      0                       # What read queue length does an incoming req see
system.mem_ctrls.rdQLenPdf::18                      0                       # What read queue length does an incoming req see
system.mem_ctrls.rdQLenPdf::19                      0                       # What read queue length does an incoming req see
system.mem_ctrls.rdQLenPdf::20                      0                       # What read queue length does an incoming req see
system.mem_ctrls.rdQLenPdf::21                      0                       # What read queue length does an incoming req see
system.mem_ctrls.rdQLenPdf::22                      0                       # What read queue length does an incoming req see
system.mem_ctrls.rdQLenPdf::23                      0                       # What read queue length does an incoming req see
system.mem_ctrls.rdQLenPdf::24                      0                       # What read queue length does an incoming req see
system.mem_ctrls.rdQLenPdf::25                      0                       # What read queue length does an incoming req see
system.mem_ctrls.rdQLenPdf::26                      0                       # What read queue length does an incoming req see
system.mem_ctrls.rdQLenPdf::27                      0                       # What read queue length does an incoming req see
system.mem_ctrls.rdQLenPdf::28                      0                       # What read queue length does an incoming req see
system.mem_ctrls.rdQLenPdf::29                      0                       # What read queue length does an incoming req see
system.mem_ctrls.rdQLenPdf::30                      0                       # What read queue length does an incoming req see
system.mem_ctrls.rdQLenPdf::31                      0                       # What read queue length does an incoming req see
system.mem_ctrls.wrQLenPdf::0                       1                       # What write queue length does an incoming req see
system.mem_ctrls.wrQLenPdf::1                       1                       # What write queue length does an incoming req see
system.mem_ctrls.wrQLenPdf::2                       1                       # What write queue length does an incoming req see
system.mem_ctrls.wrQLenPdf::3                       1                       # What write queue length does an incoming req see
system.mem_ctrls.wrQLenPdf::4                       1                       # What write queue length does an incoming req see
system.mem_ctrls.wrQLenPdf::5                       1                       # What write queue length does an incoming req see
system.mem_ctrls.wrQLenPdf::6                       1                       # What write queue length does an incoming req see
system.mem_ctrls.wrQLenPdf::7                       1                       # What write queue length does an incoming req see
system.mem_ctrls.wrQLenPdf::8                       1                       # What write queue length does an incoming req see
system.mem_ctrls.wrQLenPdf::9                       1                       # What write queue length does an incoming req see
system.mem_ctrls.wrQLenPdf::10                      0                       # What write queue length does an incoming req see
system.mem_ctrls.wrQLenPdf::11                      0                       # What write queue length does an incoming req see
system.mem_ctrls.wrQLenPdf::12                      0                       # What write queue length does an incoming req see
system.mem_ctrls.wrQLenPdf::13                      0                       # What write queue length does an incoming req see
system.mem_ctrls.wrQLenPdf::14                      0                       # What write queue length does an incoming req see
system.mem_ctrls.wrQLenPdf::15                      0                       # What write queue length does an incoming req see
system.mem_ctrls.wrQLenPdf::16                      0                       # What write queue length does an incoming req see
system.mem_ctrls.wrQLenPdf::17                      0                       # What write queue length does an incoming req see
system.mem_ctrls.wrQLenPdf::18                      0                       # What write queue length does an incoming req see
system.mem_ctrls.wrQLenPdf::19                      0                       # What write queue length does an incoming req see
system.mem_ctrls.wrQLenPdf::20                      0                       # What write queue length does an incoming req see
system.mem_ctrls.wrQLenPdf::21                      0                       # What write queue length does an incoming req see
system.mem_ctrls.wrQLenPdf::22                      0                       # What write queue length does an incoming req see
system.mem_ctrls.wrQLenPdf::23                      0                       # What write queue length does an incoming req see
system.mem_ctrls.wrQLenPdf::24                      0                       # What write queue length does an incoming req see
system.mem_ctrls.wrQLenPdf::25                      0                       # What write queue length does an incoming req see
system.mem_ctrls.wrQLenPdf::26                      0                       # What write queue length does an incoming req see
system.mem_ctrls.wrQLenPdf::27                      0                       # What write queue length does an incoming req see
system.mem_ctrls.wrQLenPdf::28                      0                       # What write queue length does an incoming req see
system.mem_ctrls.wrQLenPdf::29                      0                       # What write queue length does an incoming req see
system.mem_ctrls.wrQLenPdf::30                      0                       # What write queue length does an incoming req see
system.mem_ctrls.wrQLenPdf::31                      0                       # What write queue length does an incoming req see
system.mem_ctrls.wrQLenPdf::32                      0                       # What write queue length does an incoming req see
system.mem_ctrls.wrQLenPdf::33                      0                       # What write queue length does an incoming req see
system.mem_ctrls.wrQLenPdf::34                      0                       # What write queue length does an incoming req see
system.mem_ctrls.wrQLenPdf::35                      0                       # What write queue length does an incoming req see
system.mem_ctrls.wrQLenPdf::36                      0                       # What write queue length does an incoming req see
system.mem_ctrls.wrQLenPdf::37                      0                       # What write queue length does an incoming req see
system.mem_ctrls.wrQLenPdf::38                      0                       # What write queue length does an incoming req see
system.mem_ctrls.wrQLenPdf::39                      0                       # What write queue length does an incoming req see
system.mem_ctrls.wrQLenPdf::40                      0                       # What write queue length does an incoming req see
system.mem_ctrls.wrQLenPdf::41                      0                       # What write queue length does an incoming req see
system.mem_ctrls.wrQLenPdf::42                      0                       # What write queue length does an incoming req see
system.mem_ctrls.wrQLenPdf::43                      0                       # What write queue length does an incoming req see
system.mem_ctrls.wrQLenPdf::44                      0                       # What write queue length does an incoming req see
system.mem_ctrls.wrQLenPdf::45                      0                       # What write queue length does an incoming req see
system.mem_ctrls.wrQLenPdf::46                      0                       # What write queue length does an incoming req see
system.mem_ctrls.wrQLenPdf::47                      0                       # What write queue length does an incoming req see
system.mem_ctrls.wrQLenPdf::48                      0                       # What write queue length does an incoming req see
system.mem_ctrls.wrQLenPdf::49                      0                       # What write queue length does an incoming req see
system.mem_ctrls.wrQLenPdf::50                      0                       # What write queue length does an incoming req see
system.mem_ctrls.wrQLenPdf::51                      0                       # What write queue length does an incoming req see
system.mem_ctrls.wrQLenPdf::52                      0                       # What write queue length does an incoming req see
system.mem_ctrls.wrQLenPdf::53                      0                       # What write queue length does an incoming req see
system.mem_ctrls.wrQLenPdf::54                      0                       # What write queue length does an incoming req see
system.mem_ctrls.wrQLenPdf::55                      0                       # What write queue length does an incoming req see
system.mem_ctrls.wrQLenPdf::56                      0                       # What write queue length does an incoming req see
system.mem_ctrls.wrQLenPdf::57                      0                       # What write queue length does an incoming req see
system.mem_ctrls.wrQLenPdf::58                      0                       # What write queue length does an incoming req see
system.mem_ctrls.wrQLenPdf::59                      0                       # What write queue length does an incoming req see
system.mem_ctrls.wrQLenPdf::60                      0                       # What write queue length does an incoming req see
system.mem_ctrls.wrQLenPdf::61                      0                       # What write queue length does an incoming req see
system.mem_ctrls.wrQLenPdf::62                      0                       # What write queue length does an incoming req see
system.mem_ctrls.wrQLenPdf::63                      0                       # What write queue length does an incoming req see
system.mem_ctrls.bytesPerActivate::samples         2475                       # Bytes accessed per row activation
system.mem_ctrls.bytesPerActivate::mean    181.915152                       # Bytes accessed per row activation
system.mem_ctrls.bytesPerActivate::gmean   102.086924                       # Bytes accessed per row activation
system.mem_ctrls.bytesPerActivate::stdev   273.020432                       # Bytes accessed per row activation
system.mem_ctrls.bytesPerActivate::0-127         1815     73.33%     73.33% # Bytes accessed per row activation
system.mem_ctrls.bytesPerActivate::128-255          241      9.74%     83.07% # Bytes accessed per row activation
system.mem_ctrls.bytesPerActivate::256-383           88      3.56%     86.63% # Bytes accessed per row activation
system.mem_ctrls.bytesPerActivate::384-511           59      2.38%     89.01% # Bytes accessed per row activation
system.mem_ctrls.bytesPerActivate::512-639           29      1.17%     90.18% # Bytes accessed per row activation
system.mem_ctrls.bytesPerActivate::640-767           15      0.61%     90.79% # Bytes accessed per row activation
system.mem_ctrls.bytesPerActivate::768-895           35      1.41%     92.20% # Bytes accessed per row activation
system.mem_ctrls.bytesPerActivate::896-1023           17      0.69%     92.89% # Bytes accessed per row activation
system.mem_ctrls.bytesPerActivate::1024-1151          176      7.11%    100.00% # Bytes accessed per row activation
system.mem_ctrls.bytesPerActivate::total         2475                       # Bytes accessed per row activation
system.mem_ctrls.totQLat                     72195500                       # Total ticks spent queuing
system.mem_ctrls.totMemAccLat               204101750                       # Total ticks spent from burst creation until serviced by the DRAM
system.mem_ctrls.totBusLat                   35175000                       # Total ticks spent in databus transfers
system.mem_ctrls.avgQLat                     10262.33                       # Average queueing delay per DRAM burst
system.mem_ctrls.avgBusLat                    5000.00                       # Average bus latency per DRAM burst
system.mem_ctrls.avgMemAccLat                29012.33                       # Average memory access latency per DRAM burst
system.mem_ctrls.avgRdBW                         0.47                       # Average DRAM read bandwidth in MiByte/s
system.mem_ctrls.avgWrBW                         0.00                       # Average achieved write bandwidth in MiByte/s
system.mem_ctrls.avgRdBWSys                      0.47                       # Average system read bandwidth in MiByte/s
system.mem_ctrls.avgWrBWSys                      0.00                       # Average system write bandwidth in MiByte/s
system.mem_ctrls.peakBW                      12800.00                       # Theoretical peak bandwidth in MiByte/s
system.mem_ctrls.busUtil                         0.00                       # Data bus utilization in percentage
system.mem_ctrls.busUtilRead                     0.00                       # Data bus utilization in percentage for reads
system.mem_ctrls.busUtilWrite                    0.00                       # Data bus utilization in percentage for writes
system.mem_ctrls.avgRdQLen                       1.01                       # Average read queue length when enqueuing
system.mem_ctrls.avgWrQLen                       9.08                       # Average write queue length when enqueuing
system.mem_ctrls.readRowHits                     4560                       # Number of row buffer hits during reads
system.mem_ctrls.writeRowHits                       0                       # Number of row buffer hits during writes
system.mem_ctrls.readRowHitRate                 64.82                       # Row buffer hit rate for reads
system.mem_ctrls.writeRowHitRate                 0.00                       # Row buffer hit rate for writes
system.mem_ctrls.avgGap                   48157489.85                       # Average gap between requests
system.mem_ctrls.pageHitRate                    64.73                       # Row buffer hit rate, read and write combined
system.mem_ctrls_0.actEnergy                  8799840                       # Energy for activate commands per rank (pJ)
system.mem_ctrls_0.preEnergy                  4801500                       # Energy for precharge commands per rank (pJ)
system.mem_ctrls_0.readEnergy                23751000                       # Energy for read commands per rank (pJ)
system.mem_ctrls_0.writeEnergy                      0                       # Energy for write commands per rank (pJ)
system.mem_ctrls_0.refreshEnergy          62240624160                       # Energy for refresh commands per rank (pJ)
system.mem_ctrls_0.actBackEnergy          22898674980                       # Energy for active background per rank (pJ)
system.mem_ctrls_0.preBackEnergy         551670386250                       # Energy for precharge background per rank (pJ)
system.mem_ctrls_0.totalEnergy           636847037730                       # Total energy per rank (pJ)
system.mem_ctrls_0.averagePower            668.305347                       # Core power per rank (mW)
system.mem_ctrls_0.memoryStateTime::IDLE 917758129250                       # Time in different power states
system.mem_ctrls_0.memoryStateTime::REF   31820360000                       # Time in different power states
system.mem_ctrls_0.memoryStateTime::PRE_PDN            0                       # Time in different power states
system.mem_ctrls_0.memoryStateTime::ACT    3349763250                       # Time in different power states
system.mem_ctrls_0.memoryStateTime::ACT_PDN            0                       # Time in different power states
system.mem_ctrls_1.actEnergy                  9911160                       # Energy for activate commands per rank (pJ)
system.mem_ctrls_1.preEnergy                  5407875                       # Energy for precharge commands per rank (pJ)
system.mem_ctrls_1.readEnergy                31122000                       # Energy for read commands per rank (pJ)
system.mem_ctrls_1.writeEnergy                      0                       # Energy for write commands per rank (pJ)
system.mem_ctrls_1.refreshEnergy          62240624160                       # Energy for refresh commands per rank (pJ)
system.mem_ctrls_1.actBackEnergy          23025993030                       # Energy for active background per rank (pJ)
system.mem_ctrls_1.preBackEnergy         551558703750                       # Energy for precharge background per rank (pJ)
system.mem_ctrls_1.totalEnergy           636871761975                       # Total energy per rank (pJ)
system.mem_ctrls_1.averagePower            668.331293                       # Core power per rank (mW)
system.mem_ctrls_1.memoryStateTime::IDLE 917571644250                       # Time in different power states
system.mem_ctrls_1.memoryStateTime::REF   31820360000                       # Time in different power states
system.mem_ctrls_1.memoryStateTime::PRE_PDN            0                       # Time in different power states
system.mem_ctrls_1.memoryStateTime::ACT    3536248250                       # Time in different power states
system.mem_ctrls_1.memoryStateTime::ACT_PDN            0                       # Time in different power states
system.cpu_voltage_domain.voltage                   1                       # Voltage in Volts
system.cpu_clk_domain.clock                       500                       # Clock period in ticks
system.cpu.apic_clk_domain.clock                 8000                       # Clock period in ticks
system.cpu.workload.num_syscalls                   35                       # Number of system calls
system.cpu.numCycles                       1905869127                       # number of cpu cycles simulated
system.cpu.numWorkItemsStarted                      0                       # number of work items this cpu started
system.cpu.numWorkItemsCompleted                    0                       # number of work items this cpu completed
system.cpu.committedInsts                   500000000                       # Number of instructions committed
system.cpu.committedOps                     644895733                       # Number of ops (including micro ops) committed
system.cpu.num_int_alu_accesses             625873233                       # Number of integer alu accesses
system.cpu.num_fp_alu_accesses               27676254                       # Number of float alu accesses
system.cpu.num_func_calls                     1531165                       # number of times a function call or return occured
system.cpu.num_conditional_control_insts     25302281                       # number of instructions that are conditional controls
system.cpu.num_int_insts                    625873233                       # number of integer instructions
system.cpu.num_fp_insts                      27676254                       # number of float instructions
system.cpu.num_int_register_reads          1467548657                       # number of times the integer registers were read
system.cpu.num_int_register_writes          569494356                       # number of times the integer registers were written
system.cpu.num_fp_register_reads             21879879                       # number of times the floating registers were read
system.cpu.num_fp_register_writes            23672685                       # number of times the floating registers were written
system.cpu.num_cc_register_reads            187332012                       # number of times the CC registers were read
system.cpu.num_cc_register_writes           260734382                       # number of times the CC registers were written
system.cpu.num_mem_refs                     254894307                       # number of memory refs
system.cpu.num_load_insts                   219204129                       # Number of load instructions
system.cpu.num_store_insts                   35690178                       # Number of store instructions
system.cpu.num_idle_cycles                          0                       # Number of idle cycles
system.cpu.num_busy_cycles                 1905869127                       # Number of busy cycles
system.cpu.not_idle_fraction                        1                       # Percentage of non-idle cycles
system.cpu.idle_fraction                            0                       # Percentage of idle cycles
system.cpu.Branches                          27605108                       # Number of branches fetched
system.cpu.op_class::No_OpClass               1502715      0.23%      0.23% # Class of executed instruction
system.cpu.op_class::IntAlu                 363720567     56.40%     56.63% # Class of executed instruction
system.cpu.op_class::IntMult                   618823      0.10%     56.73% # Class of executed instruction
system.cpu.op_class::IntDiv                   6323450      0.98%     57.71% # Class of executed instruction
system.cpu.op_class::FloatAdd                17835871      2.77%     60.48% # Class of executed instruction
system.cpu.op_class::FloatCmp                       0      0.00%     60.48% # Class of executed instruction
system.cpu.op_class::FloatCvt                       0      0.00%     60.48% # Class of executed instruction
system.cpu.op_class::FloatMult                      0      0.00%     60.48% # Class of executed instruction
system.cpu.op_class::FloatDiv                       0      0.00%     60.48% # Class of executed instruction
system.cpu.op_class::FloatSqrt                      0      0.00%     60.48% # Class of executed instruction
system.cpu.op_class::SimdAdd                        0      0.00%     60.48% # Class of executed instruction
system.cpu.op_class::SimdAddAcc                     0      0.00%     60.48% # Class of executed instruction
system.cpu.op_class::SimdAlu                        0      0.00%     60.48% # Class of executed instruction
system.cpu.op_class::SimdCmp                        0      0.00%     60.48% # Class of executed instruction
system.cpu.op_class::SimdCvt                        0      0.00%     60.48% # Class of executed instruction
system.cpu.op_class::SimdMisc                       0      0.00%     60.48% # Class of executed instruction
system.cpu.op_class::SimdMult                       0      0.00%     60.48% # Class of executed instruction
system.cpu.op_class::SimdMultAcc                    0      0.00%     60.48% # Class of executed instruction
system.cpu.op_class::SimdShift                      0      0.00%     60.48% # Class of executed instruction
system.cpu.op_class::SimdShiftAcc                   0      0.00%     60.48% # Class of executed instruction
system.cpu.op_class::SimdSqrt                       0      0.00%     60.48% # Class of executed instruction
system.cpu.op_class::SimdFloatAdd                   0      0.00%     60.48% # Class of executed instruction
system.cpu.op_class::SimdFloatAlu                   0      0.00%     60.48% # Class of executed instruction
system.cpu.op_class::SimdFloatCmp                   0      0.00%     60.48% # Class of executed instruction
system.cpu.op_class::SimdFloatCvt                   0      0.00%     60.48% # Class of executed instruction
system.cpu.op_class::SimdFloatDiv                   0      0.00%     60.48% # Class of executed instruction
system.cpu.op_class::SimdFloatMisc                  0      0.00%     60.48% # Class of executed instruction
system.cpu.op_class::SimdFloatMult                  0      0.00%     60.48% # Class of executed instruction
system.cpu.op_class::SimdFloatMultAcc               0      0.00%     60.48% # Class of executed instruction
system.cpu.op_class::SimdFloatSqrt                  0      0.00%     60.48% # Class of executed instruction
system.cpu.op_class::MemRead                219204129     33.99%     94.47% # Class of executed instruction
system.cpu.op_class::MemWrite                35690178      5.53%    100.00% # Class of executed instruction
system.cpu.op_class::IprAccess                      0      0.00%    100.00% # Class of executed instruction
system.cpu.op_class::InstPrefetch                   0      0.00%    100.00% # Class of executed instruction
system.cpu.op_class::total                  644895733                       # Class of executed instruction
system.cpu.dcache.tags.replacements            138984                       # number of replacements
system.cpu.dcache.tags.tagsinuse          2044.533340                       # Cycle average of tags in use
system.cpu.dcache.tags.total_refs           254753819                       # Total number of references to valid blocks.
system.cpu.dcache.tags.sampled_refs            141032                       # Sample count of references to valid blocks.
system.cpu.dcache.tags.avg_refs           1806.354721                       # Average number of references to valid blocks.
system.cpu.dcache.tags.warmup_cycle        8313790500                       # Cycle when the warmup percentage was hit.
system.cpu.dcache.tags.occ_blocks::cpu.data  2044.533340                       # Average occupied blocks per requestor
system.cpu.dcache.tags.occ_percent::cpu.data     0.998307                       # Average percentage of cache occupancy
system.cpu.dcache.tags.occ_percent::total     0.998307                       # Average percentage of cache occupancy
system.cpu.dcache.tags.occ_task_id_blocks::1024         2048                       # Occupied blocks per task id
system.cpu.dcache.tags.age_task_id_blocks_1024::0            1                       # Occupied blocks per task id
system.cpu.dcache.tags.age_task_id_blocks_1024::1            6                       # Occupied blocks per task id
system.cpu.dcache.tags.age_task_id_blocks_1024::2           80                       # Occupied blocks per task id
system.cpu.dcache.tags.age_task_id_blocks_1024::3          576                       # Occupied blocks per task id
system.cpu.dcache.tags.age_task_id_blocks_1024::4         1385                       # Occupied blocks per task id
system.cpu.dcache.tags.occ_task_id_percent::1024            1                       # Percentage of cache occupancy per task id
system.cpu.dcache.tags.tag_accesses        1019720436                       # Number of tag accesses
system.cpu.dcache.tags.data_accesses       1019720436                       # Number of data accesses
system.cpu.dcache.ReadReq_hits::cpu.data    219162083                       # number of ReadReq hits
system.cpu.dcache.ReadReq_hits::total       219162083                       # number of ReadReq hits
system.cpu.dcache.WriteReq_hits::cpu.data     35589765                       # number of WriteReq hits
system.cpu.dcache.WriteReq_hits::total       35589765                       # number of WriteReq hits
system.cpu.dcache.SoftPFReq_hits::cpu.data         1971                       # number of SoftPFReq hits
system.cpu.dcache.SoftPFReq_hits::total          1971                       # number of SoftPFReq hits
system.cpu.dcache.demand_hits::cpu.data     254751848                       # number of demand (read+write) hits
system.cpu.dcache.demand_hits::total        254751848                       # number of demand (read+write) hits
system.cpu.dcache.overall_hits::cpu.data    254753819                       # number of overall hits
system.cpu.dcache.overall_hits::total       254753819                       # number of overall hits
system.cpu.dcache.ReadReq_misses::cpu.data        36427                       # number of ReadReq misses
system.cpu.dcache.ReadReq_misses::total         36427                       # number of ReadReq misses
system.cpu.dcache.WriteReq_misses::cpu.data       100458                       # number of WriteReq misses
system.cpu.dcache.WriteReq_misses::total       100458                       # number of WriteReq misses
system.cpu.dcache.SoftPFReq_misses::cpu.data         4147                       # number of SoftPFReq misses
system.cpu.dcache.SoftPFReq_misses::total         4147                       # number of SoftPFReq misses
system.cpu.dcache.demand_misses::cpu.data       136885                       # number of demand (read+write) misses
system.cpu.dcache.demand_misses::total         136885                       # number of demand (read+write) misses
system.cpu.dcache.overall_misses::cpu.data       141032                       # number of overall misses
system.cpu.dcache.overall_misses::total        141032                       # number of overall misses
system.cpu.dcache.ReadReq_miss_latency::cpu.data    516806000                       # number of ReadReq miss cycles
system.cpu.dcache.ReadReq_miss_latency::total    516806000                       # number of ReadReq miss cycles
system.cpu.dcache.WriteReq_miss_latency::cpu.data   1574889000                       # number of WriteReq miss cycles
system.cpu.dcache.WriteReq_miss_latency::total   1574889000                       # number of WriteReq miss cycles
system.cpu.dcache.demand_miss_latency::cpu.data   2091695000                       # number of demand (read+write) miss cycles
system.cpu.dcache.demand_miss_latency::total   2091695000                       # number of demand (read+write) miss cycles
system.cpu.dcache.overall_miss_latency::cpu.data   2091695000                       # number of overall miss cycles
system.cpu.dcache.overall_miss_latency::total   2091695000                       # number of overall miss cycles
system.cpu.dcache.ReadReq_accesses::cpu.data    219198510                       # number of ReadReq accesses(hits+misses)
system.cpu.dcache.ReadReq_accesses::total    219198510                       # number of ReadReq accesses(hits+misses)
system.cpu.dcache.WriteReq_accesses::cpu.data     35690223                       # number of WriteReq accesses(hits+misses)
system.cpu.dcache.WriteReq_accesses::total     35690223                       # number of WriteReq accesses(hits+misses)
system.cpu.dcache.SoftPFReq_accesses::cpu.data         6118                       # number of SoftPFReq accesses(hits+misses)
system.cpu.dcache.SoftPFReq_accesses::total         6118                       # number of SoftPFReq accesses(hits+misses)
system.cpu.dcache.demand_accesses::cpu.data    254888733                       # number of demand (read+write) accesses
system.cpu.dcache.demand_accesses::total    254888733                       # number of demand (read+write) accesses
system.cpu.dcache.overall_accesses::cpu.data    254894851                       # number of overall (read+write) accesses
system.cpu.dcache.overall_accesses::total    254894851                       # number of overall (read+write) accesses
system.cpu.dcache.ReadReq_miss_rate::cpu.data     0.000166                       # miss rate for ReadReq accesses
system.cpu.dcache.ReadReq_miss_rate::total     0.000166                       # miss rate for ReadReq accesses
system.cpu.dcache.WriteReq_miss_rate::cpu.data     0.002815                       # miss rate for WriteReq accesses
system.cpu.dcache.WriteReq_miss_rate::total     0.002815                       # miss rate for WriteReq accesses
system.cpu.dcache.SoftPFReq_miss_rate::cpu.data     0.677836                       # miss rate for SoftPFReq accesses
system.cpu.dcache.SoftPFReq_miss_rate::total     0.677836                       # miss rate for SoftPFReq accesses
system.cpu.dcache.demand_miss_rate::cpu.data     0.000537                       # miss rate for demand accesses
system.cpu.dcache.demand_miss_rate::total     0.000537                       # miss rate for demand accesses
system.cpu.dcache.overall_miss_rate::cpu.data     0.000553                       # miss rate for overall accesses
system.cpu.dcache.overall_miss_rate::total     0.000553                       # miss rate for overall accesses
system.cpu.dcache.ReadReq_avg_miss_latency::cpu.data 14187.443380                       # average ReadReq miss latency
system.cpu.dcache.ReadReq_avg_miss_latency::total 14187.443380                       # average ReadReq miss latency
system.cpu.dcache.WriteReq_avg_miss_latency::cpu.data 15677.088933                       # average WriteReq miss latency
system.cpu.dcache.WriteReq_avg_miss_latency::total 15677.088933                       # average WriteReq miss latency
system.cpu.dcache.demand_avg_miss_latency::cpu.data 15280.673558                       # average overall miss latency
system.cpu.dcache.demand_avg_miss_latency::total 15280.673558                       # average overall miss latency
system.cpu.dcache.overall_avg_miss_latency::cpu.data 14831.350332                       # average overall miss latency
system.cpu.dcache.overall_avg_miss_latency::total 14831.350332                       # average overall miss latency
system.cpu.dcache.blocked_cycles::no_mshrs        11749                       # number of cycles access was blocked
system.cpu.dcache.blocked_cycles::no_targets            0                       # number of cycles access was blocked
system.cpu.dcache.blocked::no_mshrs               459                       # number of cycles access was blocked
system.cpu.dcache.blocked::no_targets               0                       # number of cycles access was blocked
system.cpu.dcache.avg_blocked_cycles::no_mshrs    25.596950                       # average number of cycles each access was blocked
system.cpu.dcache.avg_blocked_cycles::no_targets          nan                       # average number of cycles each access was blocked
system.cpu.dcache.fast_writes                       0                       # number of fast writes performed
system.cpu.dcache.cache_copies                      0                       # number of cache copies performed
system.cpu.dcache.writebacks::writebacks       135676                       # number of writebacks
system.cpu.dcache.writebacks::total            135676                       # number of writebacks
system.cpu.dcache.ReadReq_mshr_misses::cpu.data        36427                       # number of ReadReq MSHR misses
system.cpu.dcache.ReadReq_mshr_misses::total        36427                       # number of ReadReq MSHR misses
system.cpu.dcache.WriteReq_mshr_misses::cpu.data       100458                       # number of WriteReq MSHR misses
system.cpu.dcache.WriteReq_mshr_misses::total       100458                       # number of WriteReq MSHR misses
system.cpu.dcache.SoftPFReq_mshr_misses::cpu.data         4147                       # number of SoftPFReq MSHR misses
system.cpu.dcache.SoftPFReq_mshr_misses::total         4147                       # number of SoftPFReq MSHR misses
system.cpu.dcache.demand_mshr_misses::cpu.data       136885                       # number of demand (read+write) MSHR misses
system.cpu.dcache.demand_mshr_misses::total       136885                       # number of demand (read+write) MSHR misses
system.cpu.dcache.overall_mshr_misses::cpu.data       141032                       # number of overall MSHR misses
system.cpu.dcache.overall_mshr_misses::total       141032                       # number of overall MSHR misses
system.cpu.dcache.ReadReq_mshr_miss_latency::cpu.data    480379000                       # number of ReadReq MSHR miss cycles
system.cpu.dcache.ReadReq_mshr_miss_latency::total    480379000                       # number of ReadReq MSHR miss cycles
system.cpu.dcache.WriteReq_mshr_miss_latency::cpu.data   1474431000                       # number of WriteReq MSHR miss cycles
system.cpu.dcache.WriteReq_mshr_miss_latency::total   1474431000                       # number of WriteReq MSHR miss cycles
system.cpu.dcache.SoftPFReq_mshr_miss_latency::cpu.data    133335000                       # number of SoftPFReq MSHR miss cycles
system.cpu.dcache.SoftPFReq_mshr_miss_latency::total    133335000                       # number of SoftPFReq MSHR miss cycles
system.cpu.dcache.demand_mshr_miss_latency::cpu.data   1954810000                       # number of demand (read+write) MSHR miss cycles
system.cpu.dcache.demand_mshr_miss_latency::total   1954810000                       # number of demand (read+write) MSHR miss cycles
system.cpu.dcache.overall_mshr_miss_latency::cpu.data   2088145000                       # number of overall MSHR miss cycles
system.cpu.dcache.overall_mshr_miss_latency::total   2088145000                       # number of overall MSHR miss cycles
system.cpu.dcache.ReadReq_mshr_miss_rate::cpu.data     0.000166                       # mshr miss rate for ReadReq accesses
system.cpu.dcache.ReadReq_mshr_miss_rate::total     0.000166                       # mshr miss rate for ReadReq accesses
system.cpu.dcache.WriteReq_mshr_miss_rate::cpu.data     0.002815                       # mshr miss rate for WriteReq accesses
system.cpu.dcache.WriteReq_mshr_miss_rate::total     0.002815                       # mshr miss rate for WriteReq accesses
system.cpu.dcache.SoftPFReq_mshr_miss_rate::cpu.data     0.677836                       # mshr miss rate for SoftPFReq accesses
system.cpu.dcache.SoftPFReq_mshr_miss_rate::total     0.677836                       # mshr miss rate for SoftPFReq accesses
system.cpu.dcache.demand_mshr_miss_rate::cpu.data     0.000537                       # mshr miss rate for demand accesses
system.cpu.dcache.demand_mshr_miss_rate::total     0.000537                       # mshr miss rate for demand accesses
system.cpu.dcache.overall_mshr_miss_rate::cpu.data     0.000553                       # mshr miss rate for overall accesses
system.cpu.dcache.overall_mshr_miss_rate::total     0.000553                       # mshr miss rate for overall accesses
system.cpu.dcache.ReadReq_avg_mshr_miss_latency::cpu.data 13187.443380                       # average ReadReq mshr miss latency
system.cpu.dcache.ReadReq_avg_mshr_miss_latency::total 13187.443380                       # average ReadReq mshr miss latency
system.cpu.dcache.WriteReq_avg_mshr_miss_latency::cpu.data 14677.088933                       # average WriteReq mshr miss latency
system.cpu.dcache.WriteReq_avg_mshr_miss_latency::total 14677.088933                       # average WriteReq mshr miss latency
system.cpu.dcache.SoftPFReq_avg_mshr_miss_latency::cpu.data 32152.158187                       # average SoftPFReq mshr miss latency
system.cpu.dcache.SoftPFReq_avg_mshr_miss_latency::total 32152.158187                       # average SoftPFReq mshr miss latency
system.cpu.dcache.demand_avg_mshr_miss_latency::cpu.data 14280.673558                       # average overall mshr miss latency
system.cpu.dcache.demand_avg_mshr_miss_latency::total 14280.673558                       # average overall mshr miss latency
system.cpu.dcache.overall_avg_mshr_miss_latency::cpu.data 14806.178740                       # average overall mshr miss latency
system.cpu.dcache.overall_avg_mshr_miss_latency::total 14806.178740                       # average overall mshr miss latency
system.cpu.dcache.no_allocate_misses                0                       # Number of misses that were no-allocate
system.cpu.dtb_walker_cache.tags.replacements            0                       # number of replacements
system.cpu.dtb_walker_cache.tags.tagsinuse            0                       # Cycle average of tags in use
system.cpu.dtb_walker_cache.tags.total_refs            0                       # Total number of references to valid blocks.
system.cpu.dtb_walker_cache.tags.sampled_refs            0                       # Sample count of references to valid blocks.
system.cpu.dtb_walker_cache.tags.avg_refs          nan                       # Average number of references to valid blocks.
system.cpu.dtb_walker_cache.tags.warmup_cycle            0                       # Cycle when the warmup percentage was hit.
system.cpu.dtb_walker_cache.tags.tag_accesses            0                       # Number of tag accesses
system.cpu.dtb_walker_cache.tags.data_accesses            0                       # Number of data accesses
system.cpu.dtb_walker_cache.blocked_cycles::no_mshrs            0                       # number of cycles access was blocked
system.cpu.dtb_walker_cache.blocked_cycles::no_targets            0                       # number of cycles access was blocked
system.cpu.dtb_walker_cache.blocked::no_mshrs            0                       # number of cycles access was blocked
system.cpu.dtb_walker_cache.blocked::no_targets            0                       # number of cycles access was blocked
system.cpu.dtb_walker_cache.avg_blocked_cycles::no_mshrs          nan                       # average number of cycles each access was blocked
system.cpu.dtb_walker_cache.avg_blocked_cycles::no_targets          nan                       # average number of cycles each access was blocked
system.cpu.dtb_walker_cache.fast_writes             0                       # number of fast writes performed
system.cpu.dtb_walker_cache.cache_copies            0                       # number of cache copies performed
system.cpu.dtb_walker_cache.no_allocate_misses            0                       # Number of misses that were no-allocate
system.cpu.icache.tags.replacements                12                       # number of replacements
system.cpu.icache.tags.tagsinuse          1307.524624                       # Cycle average of tags in use
system.cpu.icache.tags.total_refs           695976743                       # Total number of references to valid blocks.
system.cpu.icache.tags.sampled_refs              1322                       # Sample count of references to valid blocks.
system.cpu.icache.tags.avg_refs          526457.445537                       # Average number of references to valid blocks.
system.cpu.icache.tags.warmup_cycle                 0                       # Cycle when the warmup percentage was hit.
system.cpu.icache.tags.occ_blocks::cpu.inst  1307.524624                       # Average occupied blocks per requestor
system.cpu.icache.tags.occ_percent::cpu.inst     0.638440                       # Average percentage of cache occupancy
system.cpu.icache.tags.occ_percent::total     0.638440                       # Average percentage of cache occupancy
system.cpu.icache.tags.occ_task_id_blocks::1024         1310                       # Occupied blocks per task id
system.cpu.icache.tags.age_task_id_blocks_1024::4         1310                       # Occupied blocks per task id
system.cpu.icache.tags.occ_task_id_percent::1024     0.639648                       # Percentage of cache occupancy per task id
system.cpu.icache.tags.tag_accesses        5567825842                       # Number of tag accesses
system.cpu.icache.tags.data_accesses       5567825842                       # Number of data accesses
system.cpu.icache.ReadReq_hits::cpu.inst    695976743                       # number of ReadReq hits
system.cpu.icache.ReadReq_hits::total       695976743                       # number of ReadReq hits
system.cpu.icache.demand_hits::cpu.inst     695976743                       # number of demand (read+write) hits
system.cpu.icache.demand_hits::total        695976743                       # number of demand (read+write) hits
system.cpu.icache.overall_hits::cpu.inst    695976743                       # number of overall hits
system.cpu.icache.overall_hits::total       695976743                       # number of overall hits
system.cpu.icache.ReadReq_misses::cpu.inst         1322                       # number of ReadReq misses
system.cpu.icache.ReadReq_misses::total          1322                       # number of ReadReq misses
system.cpu.icache.demand_misses::cpu.inst         1322                       # number of demand (read+write) misses
system.cpu.icache.demand_misses::total           1322                       # number of demand (read+write) misses
system.cpu.icache.overall_misses::cpu.inst         1322                       # number of overall misses
system.cpu.icache.overall_misses::total          1322                       # number of overall misses
system.cpu.icache.ReadReq_miss_latency::cpu.inst    103252000                       # number of ReadReq miss cycles
system.cpu.icache.ReadReq_miss_latency::total    103252000                       # number of ReadReq miss cycles
system.cpu.icache.demand_miss_latency::cpu.inst    103252000                       # number of demand (read+write) miss cycles
system.cpu.icache.demand_miss_latency::total    103252000                       # number of demand (read+write) miss cycles
system.cpu.icache.overall_miss_latency::cpu.inst    103252000                       # number of overall miss cycles
system.cpu.icache.overall_miss_latency::total    103252000                       # number of overall miss cycles
system.cpu.icache.ReadReq_accesses::cpu.inst    695978065                       # number of ReadReq accesses(hits+misses)
system.cpu.icache.ReadReq_accesses::total    695978065                       # number of ReadReq accesses(hits+misses)
system.cpu.icache.demand_accesses::cpu.inst    695978065                       # number of demand (read+write) accesses
system.cpu.icache.demand_accesses::total    695978065                       # number of demand (read+write) accesses
system.cpu.icache.overall_accesses::cpu.inst    695978065                       # number of overall (read+write) accesses
system.cpu.icache.overall_accesses::total    695978065                       # number of overall (read+write) accesses
system.cpu.icache.ReadReq_miss_rate::cpu.inst     0.000002                       # miss rate for ReadReq accesses
system.cpu.icache.ReadReq_miss_rate::total     0.000002                       # miss rate for ReadReq accesses
system.cpu.icache.demand_miss_rate::cpu.inst     0.000002                       # miss rate for demand accesses
system.cpu.icache.demand_miss_rate::total     0.000002                       # miss rate for demand accesses
system.cpu.icache.overall_miss_rate::cpu.inst     0.000002                       # miss rate for overall accesses
system.cpu.icache.overall_miss_rate::total     0.000002                       # miss rate for overall accesses
system.cpu.icache.ReadReq_avg_miss_latency::cpu.inst 78102.874433                       # average ReadReq miss latency
system.cpu.icache.ReadReq_avg_miss_latency::total 78102.874433                       # average ReadReq miss latency
system.cpu.icache.demand_avg_miss_latency::cpu.inst 78102.874433                       # average overall miss latency
system.cpu.icache.demand_avg_miss_latency::total 78102.874433                       # average overall miss latency
system.cpu.icache.overall_avg_miss_latency::cpu.inst 78102.874433                       # average overall miss latency
system.cpu.icache.overall_avg_miss_latency::total 78102.874433                       # average overall miss latency
system.cpu.icache.blocked_cycles::no_mshrs            0                       # number of cycles access was blocked
system.cpu.icache.blocked_cycles::no_targets            0                       # number of cycles access was blocked
system.cpu.icache.blocked::no_mshrs                 0                       # number of cycles access was blocked
system.cpu.icache.blocked::no_targets               0                       # number of cycles access was blocked
system.cpu.icache.avg_blocked_cycles::no_mshrs          nan                       # average number of cycles each access was blocked
system.cpu.icache.avg_blocked_cycles::no_targets          nan                       # average number of cycles each access was blocked
system.cpu.icache.fast_writes                       0                       # number of fast writes performed
system.cpu.icache.cache_copies                      0                       # number of cache copies performed
system.cpu.icache.writebacks::writebacks           12                       # number of writebacks
system.cpu.icache.writebacks::total                12                       # number of writebacks
system.cpu.icache.ReadReq_mshr_misses::cpu.inst         1322                       # number of ReadReq MSHR misses
system.cpu.icache.ReadReq_mshr_misses::total         1322                       # number of ReadReq MSHR misses
system.cpu.icache.demand_mshr_misses::cpu.inst         1322                       # number of demand (read+write) MSHR misses
system.cpu.icache.demand_mshr_misses::total         1322                       # number of demand (read+write) MSHR misses
system.cpu.icache.overall_mshr_misses::cpu.inst         1322                       # number of overall MSHR misses
system.cpu.icache.overall_mshr_misses::total         1322                       # number of overall MSHR misses
system.cpu.icache.ReadReq_mshr_miss_latency::cpu.inst    101930000                       # number of ReadReq MSHR miss cycles
system.cpu.icache.ReadReq_mshr_miss_latency::total    101930000                       # number of ReadReq MSHR miss cycles
system.cpu.icache.demand_mshr_miss_latency::cpu.inst    101930000                       # number of demand (read+write) MSHR miss cycles
system.cpu.icache.demand_mshr_miss_latency::total    101930000                       # number of demand (read+write) MSHR miss cycles
system.cpu.icache.overall_mshr_miss_latency::cpu.inst    101930000                       # number of overall MSHR miss cycles
system.cpu.icache.overall_mshr_miss_latency::total    101930000                       # number of overall MSHR miss cycles
system.cpu.icache.ReadReq_mshr_miss_rate::cpu.inst     0.000002                       # mshr miss rate for ReadReq accesses
system.cpu.icache.ReadReq_mshr_miss_rate::total     0.000002                       # mshr miss rate for ReadReq accesses
system.cpu.icache.demand_mshr_miss_rate::cpu.inst     0.000002                       # mshr miss rate for demand accesses
system.cpu.icache.demand_mshr_miss_rate::total     0.000002                       # mshr miss rate for demand accesses
system.cpu.icache.overall_mshr_miss_rate::cpu.inst     0.000002                       # mshr miss rate for overall accesses
system.cpu.icache.overall_mshr_miss_rate::total     0.000002                       # mshr miss rate for overall accesses
system.cpu.icache.ReadReq_avg_mshr_miss_latency::cpu.inst 77102.874433                       # average ReadReq mshr miss latency
system.cpu.icache.ReadReq_avg_mshr_miss_latency::total 77102.874433                       # average ReadReq mshr miss latency
system.cpu.icache.demand_avg_mshr_miss_latency::cpu.inst 77102.874433                       # average overall mshr miss latency
system.cpu.icache.demand_avg_mshr_miss_latency::total 77102.874433                       # average overall mshr miss latency
system.cpu.icache.overall_avg_mshr_miss_latency::cpu.inst 77102.874433                       # average overall mshr miss latency
system.cpu.icache.overall_avg_mshr_miss_latency::total 77102.874433                       # average overall mshr miss latency
system.cpu.icache.no_allocate_misses                0                       # Number of misses that were no-allocate
system.cpu.itb_walker_cache.tags.replacements            0                       # number of replacements
system.cpu.itb_walker_cache.tags.tagsinuse            0                       # Cycle average of tags in use
system.cpu.itb_walker_cache.tags.total_refs            0                       # Total number of references to valid blocks.
system.cpu.itb_walker_cache.tags.sampled_refs            0                       # Sample count of references to valid blocks.
system.cpu.itb_walker_cache.tags.avg_refs          nan                       # Average number of references to valid blocks.
system.cpu.itb_walker_cache.tags.warmup_cycle            0                       # Cycle when the warmup percentage was hit.
system.cpu.itb_walker_cache.tags.tag_accesses            0                       # Number of tag accesses
system.cpu.itb_walker_cache.tags.data_accesses            0                       # Number of data accesses
system.cpu.itb_walker_cache.blocked_cycles::no_mshrs            0                       # number of cycles access was blocked
system.cpu.itb_walker_cache.blocked_cycles::no_targets            0                       # number of cycles access was blocked
system.cpu.itb_walker_cache.blocked::no_mshrs            0                       # number of cycles access was blocked
system.cpu.itb_walker_cache.blocked::no_targets            0                       # number of cycles access was blocked
system.cpu.itb_walker_cache.avg_blocked_cycles::no_mshrs          nan                       # average number of cycles each access was blocked
system.cpu.itb_walker_cache.avg_blocked_cycles::no_targets          nan                       # average number of cycles each access was blocked
system.cpu.itb_walker_cache.fast_writes             0                       # number of fast writes performed
system.cpu.itb_walker_cache.cache_copies            0                       # number of cache copies performed
system.cpu.itb_walker_cache.no_allocate_misses            0                       # Number of misses that were no-allocate
system.l2.tags.replacements                       387                       # number of replacements
system.l2.tags.tagsinuse                  4667.609477                       # Cycle average of tags in use
system.l2.tags.total_refs                      118368                       # Total number of references to valid blocks.
system.l2.tags.sampled_refs                      5441                       # Sample count of references to valid blocks.
system.l2.tags.avg_refs                     21.754824                       # Average number of references to valid blocks.
system.l2.tags.warmup_cycle                         0                       # Cycle when the warmup percentage was hit.
system.l2.tags.occ_blocks::writebacks     3032.047458                       # Average occupied blocks per requestor
system.l2.tags.occ_blocks::cpu.inst       1032.226556                       # Average occupied blocks per requestor
system.l2.tags.occ_blocks::cpu.data        603.335463                       # Average occupied blocks per requestor
system.l2.tags.occ_percent::writebacks       0.185061                       # Average percentage of cache occupancy
system.l2.tags.occ_percent::cpu.inst         0.063002                       # Average percentage of cache occupancy
system.l2.tags.occ_percent::cpu.data         0.036825                       # Average percentage of cache occupancy
system.l2.tags.occ_percent::total            0.284888                       # Average percentage of cache occupancy
system.l2.tags.occ_task_id_blocks::1024          5054                       # Occupied blocks per task id
system.l2.tags.age_task_id_blocks_1024::0            1                       # Occupied blocks per task id
system.l2.tags.age_task_id_blocks_1024::1            6                       # Occupied blocks per task id
system.l2.tags.age_task_id_blocks_1024::2           37                       # Occupied blocks per task id
system.l2.tags.age_task_id_blocks_1024::3          191                       # Occupied blocks per task id
system.l2.tags.age_task_id_blocks_1024::4         4819                       # Occupied blocks per task id
system.l2.tags.occ_task_id_percent::1024     0.308472                       # Percentage of cache occupancy per task id
system.l2.tags.tag_accesses                    387248                       # Number of tag accesses
system.l2.tags.data_accesses                   387248                       # Number of data accesses
system.l2.WritebackDirty_hits::writebacks       135676                       # number of WritebackDirty hits
system.l2.WritebackDirty_hits::total           135676                       # number of WritebackDirty hits
system.l2.WritebackClean_hits::writebacks           12                       # number of WritebackClean hits
system.l2.WritebackClean_hits::total               12                       # number of WritebackClean hits
system.l2.ReadExReq_hits::cpu.data              96680                       # number of ReadExReq hits
system.l2.ReadExReq_hits::total                 96680                       # number of ReadExReq hits
system.l2.ReadCleanReq_hits::cpu.inst               1                       # number of ReadCleanReq hits
system.l2.ReadCleanReq_hits::total                  1                       # number of ReadCleanReq hits
system.l2.ReadSharedReq_hits::cpu.data          38637                       # number of ReadSharedReq hits
system.l2.ReadSharedReq_hits::total             38637                       # number of ReadSharedReq hits
system.l2.demand_hits::cpu.inst                     1                       # number of demand (read+write) hits
system.l2.demand_hits::cpu.data                135317                       # number of demand (read+write) hits
system.l2.demand_hits::total                   135318                       # number of demand (read+write) hits
system.l2.overall_hits::cpu.inst                    1                       # number of overall hits
system.l2.overall_hits::cpu.data               135317                       # number of overall hits
system.l2.overall_hits::total                  135318                       # number of overall hits
system.l2.ReadExReq_misses::cpu.data             3778                       # number of ReadExReq misses
system.l2.ReadExReq_misses::total                3778                       # number of ReadExReq misses
system.l2.ReadCleanReq_misses::cpu.inst          1321                       # number of ReadCleanReq misses
system.l2.ReadCleanReq_misses::total             1321                       # number of ReadCleanReq misses
system.l2.ReadSharedReq_misses::cpu.data         1937                       # number of ReadSharedReq misses
system.l2.ReadSharedReq_misses::total            1937                       # number of ReadSharedReq misses
system.l2.demand_misses::cpu.inst                1321                       # number of demand (read+write) misses
system.l2.demand_misses::cpu.data                5715                       # number of demand (read+write) misses
system.l2.demand_misses::total                   7036                       # number of demand (read+write) misses
system.l2.overall_misses::cpu.inst               1321                       # number of overall misses
system.l2.overall_misses::cpu.data               5715                       # number of overall misses
system.l2.overall_misses::total                  7036                       # number of overall misses
system.l2.ReadExReq_miss_latency::cpu.data    308290000                       # number of ReadExReq miss cycles
system.l2.ReadExReq_miss_latency::total     308290000                       # number of ReadExReq miss cycles
system.l2.ReadCleanReq_miss_latency::cpu.inst     99935500                       # number of ReadCleanReq miss cycles
system.l2.ReadCleanReq_miss_latency::total     99935500                       # number of ReadCleanReq miss cycles
system.l2.ReadSharedReq_miss_latency::cpu.data    147156500                       # number of ReadSharedReq miss cycles
system.l2.ReadSharedReq_miss_latency::total    147156500                       # number of ReadSharedReq miss cycles
system.l2.demand_miss_latency::cpu.inst      99935500                       # number of demand (read+write) miss cycles
system.l2.demand_miss_latency::cpu.data     455446500                       # number of demand (read+write) miss cycles
system.l2.demand_miss_latency::total        555382000                       # number of demand (read+write) miss cycles
system.l2.overall_miss_latency::cpu.inst     99935500                       # number of overall miss cycles
system.l2.overall_miss_latency::cpu.data    455446500                       # number of overall miss cycles
system.l2.overall_miss_latency::total       555382000                       # number of overall miss cycles
system.l2.WritebackDirty_accesses::writebacks       135676                       # number of WritebackDirty accesses(hits+misses)
system.l2.WritebackDirty_accesses::total       135676                       # number of WritebackDirty accesses(hits+misses)
system.l2.WritebackClean_accesses::writebacks           12                       # number of WritebackClean accesses(hits+misses)
system.l2.WritebackClean_accesses::total           12                       # number of WritebackClean accesses(hits+misses)
system.l2.ReadExReq_accesses::cpu.data         100458                       # number of ReadExReq accesses(hits+misses)
system.l2.ReadExReq_accesses::total            100458                       # number of ReadExReq accesses(hits+misses)
system.l2.ReadCleanReq_accesses::cpu.inst         1322                       # number of ReadCleanReq accesses(hits+misses)
system.l2.ReadCleanReq_accesses::total           1322                       # number of ReadCleanReq accesses(hits+misses)
system.l2.ReadSharedReq_accesses::cpu.data        40574                       # number of ReadSharedReq accesses(hits+misses)
system.l2.ReadSharedReq_accesses::total         40574                       # number of ReadSharedReq accesses(hits+misses)
system.l2.demand_accesses::cpu.inst              1322                       # number of demand (read+write) accesses
system.l2.demand_accesses::cpu.data            141032                       # number of demand (read+write) accesses
system.l2.demand_accesses::total               142354                       # number of demand (read+write) accesses
system.l2.overall_accesses::cpu.inst             1322                       # number of overall (read+write) accesses
system.l2.overall_accesses::cpu.data           141032                       # number of overall (read+write) accesses
system.l2.overall_accesses::total              142354                       # number of overall (read+write) accesses
system.l2.ReadExReq_miss_rate::cpu.data      0.037608                       # miss rate for ReadExReq accesses
system.l2.ReadExReq_miss_rate::total         0.037608                       # miss rate for ReadExReq accesses
system.l2.ReadCleanReq_miss_rate::cpu.inst     0.999244                       # miss rate for ReadCleanReq accesses
system.l2.ReadCleanReq_miss_rate::total      0.999244                       # miss rate for ReadCleanReq accesses
system.l2.ReadSharedReq_miss_rate::cpu.data     0.047740                       # miss rate for ReadSharedReq accesses
system.l2.ReadSharedReq_miss_rate::total     0.047740                       # miss rate for ReadSharedReq accesses
system.l2.demand_miss_rate::cpu.inst         0.999244                       # miss rate for demand accesses
system.l2.demand_miss_rate::cpu.data         0.040523                       # miss rate for demand accesses
system.l2.demand_miss_rate::total            0.049426                       # miss rate for demand accesses
system.l2.overall_miss_rate::cpu.inst        0.999244                       # miss rate for overall accesses
system.l2.overall_miss_rate::cpu.data        0.040523                       # miss rate for overall accesses
system.l2.overall_miss_rate::total           0.049426                       # miss rate for overall accesses
system.l2.ReadExReq_avg_miss_latency::cpu.data 81601.376390                       # average ReadExReq miss latency
system.l2.ReadExReq_avg_miss_latency::total 81601.376390                       # average ReadExReq miss latency
system.l2.ReadCleanReq_avg_miss_latency::cpu.inst 75651.400454                       # average ReadCleanReq miss latency
system.l2.ReadCleanReq_avg_miss_latency::total 75651.400454                       # average ReadCleanReq miss latency
system.l2.ReadSharedReq_avg_miss_latency::cpu.data 75971.347445                       # average ReadSharedReq miss latency
system.l2.ReadSharedReq_avg_miss_latency::total 75971.347445                       # average ReadSharedReq miss latency
system.l2.demand_avg_miss_latency::cpu.inst 75651.400454                       # average overall miss latency
system.l2.demand_avg_miss_latency::cpu.data 79693.175853                       # average overall miss latency
system.l2.demand_avg_miss_latency::total 78934.337692                       # average overall miss latency
system.l2.overall_avg_miss_latency::cpu.inst 75651.400454                       # average overall miss latency
system.l2.overall_avg_miss_latency::cpu.data 79693.175853                       # average overall miss latency
system.l2.overall_avg_miss_latency::total 78934.337692                       # average overall miss latency
system.l2.blocked_cycles::no_mshrs                  0                       # number of cycles access was blocked
system.l2.blocked_cycles::no_targets                0                       # number of cycles access was blocked
system.l2.blocked::no_mshrs                         0                       # number of cycles access was blocked
system.l2.blocked::no_targets                       0                       # number of cycles access was blocked
system.l2.avg_blocked_cycles::no_mshrs            nan                       # average number of cycles each access was blocked
system.l2.avg_blocked_cycles::no_targets          nan                       # average number of cycles each access was blocked
system.l2.fast_writes                               0                       # number of fast writes performed
system.l2.cache_copies                              0                       # number of cache copies performed
system.l2.writebacks::writebacks                   10                       # number of writebacks
system.l2.writebacks::total                        10                       # number of writebacks
system.l2.CleanEvict_mshr_misses::writebacks           59                       # number of CleanEvict MSHR misses
system.l2.CleanEvict_mshr_misses::total            59                       # number of CleanEvict MSHR misses
system.l2.ReadExReq_mshr_misses::cpu.data         3778                       # number of ReadExReq MSHR misses
system.l2.ReadExReq_mshr_misses::total           3778                       # number of ReadExReq MSHR misses
system.l2.ReadCleanReq_mshr_misses::cpu.inst         1321                       # number of ReadCleanReq MSHR misses
system.l2.ReadCleanReq_mshr_misses::total         1321                       # number of ReadCleanReq MSHR misses
system.l2.ReadSharedReq_mshr_misses::cpu.data         1937                       # number of ReadSharedReq MSHR misses
system.l2.ReadSharedReq_mshr_misses::total         1937                       # number of ReadSharedReq MSHR misses
system.l2.demand_mshr_misses::cpu.inst           1321                       # number of demand (read+write) MSHR misses
system.l2.demand_mshr_misses::cpu.data           5715                       # number of demand (read+write) MSHR misses
system.l2.demand_mshr_misses::total              7036                       # number of demand (read+write) MSHR misses
system.l2.overall_mshr_misses::cpu.inst          1321                       # number of overall MSHR misses
system.l2.overall_mshr_misses::cpu.data          5715                       # number of overall MSHR misses
system.l2.overall_mshr_misses::total             7036                       # number of overall MSHR misses
system.l2.ReadExReq_mshr_miss_latency::cpu.data    270510000                       # number of ReadExReq MSHR miss cycles
system.l2.ReadExReq_mshr_miss_latency::total    270510000                       # number of ReadExReq MSHR miss cycles
system.l2.ReadCleanReq_mshr_miss_latency::cpu.inst     86725500                       # number of ReadCleanReq MSHR miss cycles
system.l2.ReadCleanReq_mshr_miss_latency::total     86725500                       # number of ReadCleanReq MSHR miss cycles
system.l2.ReadSharedReq_mshr_miss_latency::cpu.data    127786500                       # number of ReadSharedReq MSHR miss cycles
system.l2.ReadSharedReq_mshr_miss_latency::total    127786500                       # number of ReadSharedReq MSHR miss cycles
system.l2.demand_mshr_miss_latency::cpu.inst     86725500                       # number of demand (read+write) MSHR miss cycles
system.l2.demand_mshr_miss_latency::cpu.data    398296500                       # number of demand (read+write) MSHR miss cycles
system.l2.demand_mshr_miss_latency::total    485022000                       # number of demand (read+write) MSHR miss cycles
system.l2.overall_mshr_miss_latency::cpu.inst     86725500                       # number of overall MSHR miss cycles
system.l2.overall_mshr_miss_latency::cpu.data    398296500                       # number of overall MSHR miss cycles
system.l2.overall_mshr_miss_latency::total    485022000                       # number of overall MSHR miss cycles
system.l2.CleanEvict_mshr_miss_rate::writebacks          inf                       # mshr miss rate for CleanEvict accesses
system.l2.CleanEvict_mshr_miss_rate::total          inf                       # mshr miss rate for CleanEvict accesses
system.l2.ReadExReq_mshr_miss_rate::cpu.data     0.037608                       # mshr miss rate for ReadExReq accesses
system.l2.ReadExReq_mshr_miss_rate::total     0.037608                       # mshr miss rate for ReadExReq accesses
system.l2.ReadCleanReq_mshr_miss_rate::cpu.inst     0.999244                       # mshr miss rate for ReadCleanReq accesses
system.l2.ReadCleanReq_mshr_miss_rate::total     0.999244                       # mshr miss rate for ReadCleanReq accesses
system.l2.ReadSharedReq_mshr_miss_rate::cpu.data     0.047740                       # mshr miss rate for ReadSharedReq accesses
system.l2.ReadSharedReq_mshr_miss_rate::total     0.047740                       # mshr miss rate for ReadSharedReq accesses
system.l2.demand_mshr_miss_rate::cpu.inst     0.999244                       # mshr miss rate for demand accesses
system.l2.demand_mshr_miss_rate::cpu.data     0.040523                       # mshr miss rate for demand accesses
system.l2.demand_mshr_miss_rate::total       0.049426                       # mshr miss rate for demand accesses
system.l2.overall_mshr_miss_rate::cpu.inst     0.999244                       # mshr miss rate for overall accesses
system.l2.overall_mshr_miss_rate::cpu.data     0.040523                       # mshr miss rate for overall accesses
system.l2.overall_mshr_miss_rate::total      0.049426                       # mshr miss rate for overall accesses
system.l2.ReadExReq_avg_mshr_miss_latency::cpu.data 71601.376390                       # average ReadExReq mshr miss latency
system.l2.ReadExReq_avg_mshr_miss_latency::total 71601.376390                       # average ReadExReq mshr miss latency
system.l2.ReadCleanReq_avg_mshr_miss_latency::cpu.inst 65651.400454                       # average ReadCleanReq mshr miss latency
system.l2.ReadCleanReq_avg_mshr_miss_latency::total 65651.400454                       # average ReadCleanReq mshr miss latency
system.l2.ReadSharedReq_avg_mshr_miss_latency::cpu.data 65971.347445                       # average ReadSharedReq mshr miss latency
system.l2.ReadSharedReq_avg_mshr_miss_latency::total 65971.347445                       # average ReadSharedReq mshr miss latency
system.l2.demand_avg_mshr_miss_latency::cpu.inst 65651.400454                       # average overall mshr miss latency
system.l2.demand_avg_mshr_miss_latency::cpu.data 69693.175853                       # average overall mshr miss latency
system.l2.demand_avg_mshr_miss_latency::total 68934.337692                       # average overall mshr miss latency
system.l2.overall_avg_mshr_miss_latency::cpu.inst 65651.400454                       # average overall mshr miss latency
system.l2.overall_avg_mshr_miss_latency::cpu.data 69693.175853                       # average overall mshr miss latency
system.l2.overall_avg_mshr_miss_latency::total 68934.337692                       # average overall mshr miss latency
system.l2.no_allocate_misses                        0                       # Number of misses that were no-allocate
system.membus.trans_dist::ReadResp               3258                       # Transaction distribution
system.membus.trans_dist::WritebackDirty           10                       # Transaction distribution
system.membus.trans_dist::CleanEvict               64                       # Transaction distribution
system.membus.trans_dist::ReadExReq              3778                       # Transaction distribution
system.membus.trans_dist::ReadExResp             3778                       # Transaction distribution
system.membus.trans_dist::ReadSharedReq          3258                       # Transaction distribution
system.membus.pkt_count_system.l2.mem_side::system.mem_ctrls.port        14146                       # Packet count per connected master and slave (bytes)
system.membus.pkt_count_system.l2.mem_side::total        14146                       # Packet count per connected master and slave (bytes)
system.membus.pkt_count::total                  14146                       # Packet count per connected master and slave (bytes)
system.membus.pkt_size_system.l2.mem_side::system.mem_ctrls.port       450944                       # Cumulative packet size per connected master and slave (bytes)
system.membus.pkt_size_system.l2.mem_side::total       450944                       # Cumulative packet size per connected master and slave (bytes)
system.membus.pkt_size::total                  450944                       # Cumulative packet size per connected master and slave (bytes)
system.membus.snoops                                0                       # Total snoops (count)
system.membus.snoop_fanout::samples              7110                       # Request fanout histogram
system.membus.snoop_fanout::mean                    0                       # Request fanout histogram
system.membus.snoop_fanout::stdev                   0                       # Request fanout histogram
system.membus.snoop_fanout::underflows              0      0.00%      0.00% # Request fanout histogram
system.membus.snoop_fanout::0                    7110    100.00%    100.00% # Request fanout histogram
system.membus.snoop_fanout::1                       0      0.00%    100.00% # Request fanout histogram
system.membus.snoop_fanout::overflows               0      0.00%    100.00% # Request fanout histogram
system.membus.snoop_fanout::min_value               0                       # Request fanout histogram
system.membus.snoop_fanout::max_value               0                       # Request fanout histogram
system.membus.snoop_fanout::total                7110                       # Request fanout histogram
system.membus.reqLayer2.occupancy             7752000                       # Layer occupancy (ticks)
system.membus.reqLayer2.utilization               0.0                       # Layer utilization (%)
system.membus.respLayer1.occupancy           37405250                       # Layer occupancy (ticks)
system.membus.respLayer1.utilization              0.0                       # Layer utilization (%)
system.tol2bus.snoop_filter.tot_requests       281350                       # Total number of requests made to the snoop filter.
system.tol2bus.snoop_filter.hit_single_requests       138996                       # Number of requests hitting in the snoop filter with a single holder of the requested data.
system.tol2bus.snoop_filter.hit_multi_requests            1                       # Number of requests hitting in the snoop filter with multiple (>1) holders of the requested data.
system.tol2bus.snoop_filter.tot_snoops            372                       # Total number of snoops made to the snoop filter.
system.tol2bus.snoop_filter.hit_single_snoops          372                       # Number of snoops hitting in the snoop filter with a single holder of the requested data.
system.tol2bus.snoop_filter.hit_multi_snoops            0                       # Number of snoops hitting in the snoop filter with multiple (>1) holders of the requested data.
system.tol2bus.trans_dist::ReadResp             41896                       # Transaction distribution
system.tol2bus.trans_dist::WritebackDirty       135686                       # Transaction distribution
system.tol2bus.trans_dist::WritebackClean           12                       # Transaction distribution
system.tol2bus.trans_dist::CleanEvict            3684                       # Transaction distribution
system.tol2bus.trans_dist::ReadExReq           100458                       # Transaction distribution
system.tol2bus.trans_dist::ReadExResp          100458                       # Transaction distribution
system.tol2bus.trans_dist::ReadCleanReq          1322                       # Transaction distribution
system.tol2bus.trans_dist::ReadSharedReq        40574                       # Transaction distribution
system.tol2bus.pkt_count_system.cpu.icache.mem_side::system.l2.cpu_side         2656                       # Packet count per connected master and slave (bytes)
system.tol2bus.pkt_count_system.cpu.dcache.mem_side::system.l2.cpu_side       421047                       # Packet count per connected master and slave (bytes)
system.tol2bus.pkt_count::total                423703                       # Packet count per connected master and slave (bytes)
system.tol2bus.pkt_size_system.cpu.icache.mem_side::system.l2.cpu_side        85376                       # Cumulative packet size per connected master and slave (bytes)
system.tol2bus.pkt_size_system.cpu.dcache.mem_side::system.l2.cpu_side     17709312                       # Cumulative packet size per connected master and slave (bytes)
system.tol2bus.pkt_size::total               17794688                       # Cumulative packet size per connected master and slave (bytes)
system.tol2bus.snoops                             387                       # Total snoops (count)
system.tol2bus.snoop_fanout::samples           142741                       # Request fanout histogram
system.tol2bus.snoop_fanout::mean            0.002613                       # Request fanout histogram
system.tol2bus.snoop_fanout::stdev           0.051052                       # Request fanout histogram
system.tol2bus.snoop_fanout::underflows             0      0.00%      0.00% # Request fanout histogram
system.tol2bus.snoop_fanout::0                 142368     99.74%     99.74% # Request fanout histogram
system.tol2bus.snoop_fanout::1                    373      0.26%    100.00% # Request fanout histogram
system.tol2bus.snoop_fanout::2                      0      0.00%    100.00% # Request fanout histogram
system.tol2bus.snoop_fanout::3                      0      0.00%    100.00% # Request fanout histogram
system.tol2bus.snoop_fanout::4                      0      0.00%    100.00% # Request fanout histogram
system.tol2bus.snoop_fanout::overflows              0      0.00%    100.00% # Request fanout histogram
system.tol2bus.snoop_fanout::min_value              0                       # Request fanout histogram
system.tol2bus.snoop_fanout::max_value              1                       # Request fanout histogram
system.tol2bus.snoop_fanout::total             142741                       # Request fanout histogram
system.tol2bus.reqLayer0.occupancy          276363000                       # Layer occupancy (ticks)
system.tol2bus.reqLayer0.utilization              0.0                       # Layer utilization (%)
system.tol2bus.respLayer0.occupancy           1983000                       # Layer occupancy (ticks)
system.tol2bus.respLayer0.utilization             0.0                       # Layer utilization (%)
system.tol2bus.respLayer1.occupancy         211548000                       # Layer occupancy (ticks)
system.tol2bus.respLayer1.utilization             0.0                       # Layer utilization (%)

---------- End Simulation Statistics   ----------
