
---------- Begin Simulation Statistics ----------
sim_seconds                                  0.955882                       # Number of seconds simulated
sim_ticks                                955881631500                       # Number of ticks simulated
final_tick                               955881631500                       # Number of ticks from beginning of simulation (restored from checkpoints and never reset)
sim_freq                                 1000000000000                       # Frequency of simulated ticks
host_inst_rate                                 542573                       # Simulator instruction rate (inst/s)
host_op_rate                                   699806                       # Simulator op (including micro ops) rate (op/s)
host_tick_rate                             1037270756                       # Simulator tick rate (ticks/s)
host_mem_usage                                 833548                       # Number of bytes of host memory used
host_seconds                                   921.54                       # Real time elapsed on the host
sim_insts                                   500000000                       # Number of instructions simulated
sim_ops                                     644895733                       # Number of ops (including micro ops) simulated
system.voltage_domain.voltage                       1                       # Voltage in Volts
system.clk_domain.clock                          1000                       # Clock period in ticks
system.mem_ctrls.bytes_read::cpu.inst           85312                       # Number of bytes read from this memory
system.mem_ctrls.bytes_read::cpu.data          366784                       # Number of bytes read from this memory
system.mem_ctrls.bytes_read::total             452096                       # Number of bytes read from this memory
system.mem_ctrls.bytes_inst_read::cpu.inst        85312                       # Number of instructions bytes read from this memory
system.mem_ctrls.bytes_inst_read::total         85312                       # Number of instructions bytes read from this memory
system.mem_ctrls.bytes_written::writebacks         2048                       # Number of bytes written to this memory
system.mem_ctrls.bytes_written::total            2048                       # Number of bytes written to this memory
system.mem_ctrls.num_reads::cpu.inst             1333                       # Number of read requests responded to by this memory
system.mem_ctrls.num_reads::cpu.data             5731                       # Number of read requests responded to by this memory
system.mem_ctrls.num_reads::total                7064                       # Number of read requests responded to by this memory
system.mem_ctrls.num_writes::writebacks            32                       # Number of write requests responded to by this memory
system.mem_ctrls.num_writes::total                 32                       # Number of write requests responded to by this memory
system.mem_ctrls.bw_read::cpu.inst              89250                       # Total read bandwidth from this memory (bytes/s)
system.mem_ctrls.bw_read::cpu.data             383713                       # Total read bandwidth from this memory (bytes/s)
system.mem_ctrls.bw_read::total                472962                       # Total read bandwidth from this memory (bytes/s)
system.mem_ctrls.bw_inst_read::cpu.inst         89250                       # Instruction read bandwidth from this memory (bytes/s)
system.mem_ctrls.bw_inst_read::total            89250                       # Instruction read bandwidth from this memory (bytes/s)
system.mem_ctrls.bw_write::writebacks            2143                       # Write bandwidth from this memory (bytes/s)
system.mem_ctrls.bw_write::total                 2143                       # Write bandwidth from this memory (bytes/s)
system.mem_ctrls.bw_total::writebacks            2143                       # Total bandwidth to/from this memory (bytes/s)
system.mem_ctrls.bw_total::cpu.inst             89250                       # Total bandwidth to/from this memory (bytes/s)
system.mem_ctrls.bw_total::cpu.data            383713                       # Total bandwidth to/from this memory (bytes/s)
system.mem_ctrls.bw_total::total               475105                       # Total bandwidth to/from this memory (bytes/s)
system.mem_ctrls.readReqs                        7064                       # Number of read requests accepted
system.mem_ctrls.writeReqs                         32                       # Number of write requests accepted
system.mem_ctrls.readBursts                      7064                       # Number of DRAM read bursts, including those serviced by the write queue
system.mem_ctrls.writeBursts                       32                       # Number of DRAM write bursts, including those merged in the write queue
system.mem_ctrls.bytesReadDRAM                 451072                       # Total number of bytes read from DRAM
system.mem_ctrls.bytesReadWrQ                    1024                       # Total number of bytes read from write queue
system.mem_ctrls.bytesWritten                       0                       # Total number of bytes written to DRAM
system.mem_ctrls.bytesReadSys                  452096                       # Total read bytes from the system interface side
system.mem_ctrls.bytesWrittenSys                 2048                       # Total written bytes from the system interface side
system.mem_ctrls.servicedByWrQ                     16                       # Number of DRAM read bursts serviced by the write queue
system.mem_ctrls.mergedWrBursts                     0                       # Number of DRAM write bursts merged with an existing one
system.mem_ctrls.neitherReadNorWriteReqs          305                       # Number of requests that are neither read nor write
system.mem_ctrls.perBankRdBursts::0               315                       # Per bank write bursts
system.mem_ctrls.perBankRdBursts::1               346                       # Per bank write bursts
system.mem_ctrls.perBankRdBursts::2               432                       # Per bank write bursts
system.mem_ctrls.perBankRdBursts::3               318                       # Per bank write bursts
system.mem_ctrls.perBankRdBursts::4               481                       # Per bank write bursts
system.mem_ctrls.perBankRdBursts::5               410                       # Per bank write bursts
system.mem_ctrls.perBankRdBursts::6               341                       # Per bank write bursts
system.mem_ctrls.perBankRdBursts::7               415                       # Per bank write bursts
system.mem_ctrls.perBankRdBursts::8               509                       # Per bank write bursts
system.mem_ctrls.perBankRdBursts::9               514                       # Per bank write bursts
system.mem_ctrls.perBankRdBursts::10              555                       # Per bank write bursts
system.mem_ctrls.perBankRdBursts::11              591                       # Per bank write bursts
system.mem_ctrls.perBankRdBursts::12              493                       # Per bank write bursts
system.mem_ctrls.perBankRdBursts::13              448                       # Per bank write bursts
system.mem_ctrls.perBankRdBursts::14              431                       # Per bank write bursts
system.mem_ctrls.perBankRdBursts::15              449                       # Per bank write bursts
system.mem_ctrls.perBankWrBursts::0                 0                       # Per bank write bursts
system.mem_ctrls.perBankWrBursts::1                 0                       # Per bank write bursts
system.mem_ctrls.perBankWrBursts::2                 0                       # Per bank write bursts
system.mem_ctrls.perBankWrBursts::3                 0                       # Per bank write bursts
system.mem_ctrls.perBankWrBursts::4                 0                       # Per bank write bursts
system.mem_ctrls.perBankWrBursts::5                 0                       # Per bank write bursts
system.mem_ctrls.perBankWrBursts::6                 0                       # Per bank write bursts
system.mem_ctrls.perBankWrBursts::7                 0                       # Per bank write bursts
system.mem_ctrls.perBankWrBursts::8                 0                       # Per bank write bursts
system.mem_ctrls.perBankWrBursts::9                 0                       # Per bank write bursts
system.mem_ctrls.perBankWrBursts::10                0                       # Per bank write bursts
system.mem_ctrls.perBankWrBursts::11                0                       # Per bank write bursts
system.mem_ctrls.perBankWrBursts::12                0                       # Per bank write bursts
system.mem_ctrls.perBankWrBursts::13                0                       # Per bank write bursts
system.mem_ctrls.perBankWrBursts::14                0                       # Per bank write bursts
system.mem_ctrls.perBankWrBursts::15                0                       # Per bank write bursts
system.mem_ctrls.numRdRetry                         0                       # Number of times read queue was full causing retry
system.mem_ctrls.numWrRetry                         0                       # Number of times write queue was full causing retry
system.mem_ctrls.totGap                  340391811500                       # Total gap between requests
system.mem_ctrls.readPktSize::0                     0                       # Read request sizes (log2)
system.mem_ctrls.readPktSize::1                     0                       # Read request sizes (log2)
system.mem_ctrls.readPktSize::2                     0                       # Read request sizes (log2)
system.mem_ctrls.readPktSize::3                     0                       # Read request sizes (log2)
system.mem_ctrls.readPktSize::4                     0                       # Read request sizes (log2)
system.mem_ctrls.readPktSize::5                     0                       # Read request sizes (log2)
system.mem_ctrls.readPktSize::6                  7064                       # Read request sizes (log2)
system.mem_ctrls.writePktSize::0                    0                       # Write request sizes (log2)
system.mem_ctrls.writePktSize::1                    0                       # Write request sizes (log2)
system.mem_ctrls.writePktSize::2                    0                       # Write request sizes (log2)
system.mem_ctrls.writePktSize::3                    0                       # Write request sizes (log2)
system.mem_ctrls.writePktSize::4                    0                       # Write request sizes (log2)
system.mem_ctrls.writePktSize::5                    0                       # Write request sizes (log2)
system.mem_ctrls.writePktSize::6                   32                       # Write request sizes (log2)
system.mem_ctrls.rdQLenPdf::0                    6368                       # What read queue length does an incoming req see
system.mem_ctrls.rdQLenPdf::1                     635                       # What read queue length does an incoming req see
system.mem_ctrls.rdQLenPdf::2                      38                       # What read queue length does an incoming req see
system.mem_ctrls.rdQLenPdf::3                       7                       # What read queue length does an incoming req see
system.mem_ctrls.rdQLenPdf::4                       0                       # What read queue length does an incoming req see
system.mem_ctrls.rdQLenPdf::5                       0                       # What read queue length does an incoming req see
system.mem_ctrls.rdQLenPdf::6                       0                       # What read queue length does an incoming req see
system.mem_ctrls.rdQLenPdf::7                       0                       # What read queue length does an incoming req see
system.mem_ctrls.rdQLenPdf::8                       0                       # What read queue length does an incoming req see
system.mem_ctrls.rdQLenPdf::9                       0                       # What read queue length does an incoming req see
system.mem_ctrls.rdQLenPdf::10                      0                       # What read queue length does an incoming req see
system.mem_ctrls.rdQLenPdf::11                      0                       # What read queue length does an incoming req see
system.mem_ctrls.rdQLenPdf::12                      0                       # What read queue length does an incoming req see
system.mem_ctrls.rdQLenPdf::13                      0                       # What read queue length does an incoming req see
system.mem_ctrls.rdQLenPdf::14                      0                       # What read queue length does an incoming req see
system.mem_ctrls.rdQLenPdf::15                      0                       # What read queue length does an incoming req see
system.mem_ctrls.rdQLenPdf::16                      0                       # What read queue length does an incoming req see
system.mem_ctrls.rdQLenPdf::17                      0                       # What read queue length does an incoming req see
system.mem_ctrls.rdQLenPdf::18                      0                       # What read queue length does an incoming req see
system.mem_ctrls.rdQLenPdf::19                      0                       # What read queue length does an incoming req see
system.mem_ctrls.rdQLenPdf::20                      0                       # What read queue length does an incoming req see
system.mem_ctrls.rdQLenPdf::21                      0                       # What read queue length does an incoming req see
system.mem_ctrls.rdQLenPdf::22                      0                       # What read queue length does an incoming req see
system.mem_ctrls.rdQLenPdf::23                      0                       # What read queue length does an incoming req see
system.mem_ctrls.rdQLenPdf::24                      0                       # What read queue length does an incoming req see
system.mem_ctrls.rdQLenPdf::25                      0                       # What read queue length does an incoming req see
system.mem_ctrls.rdQLenPdf::26                      0                       # What read queue length does an incoming req see
system.mem_ctrls.rdQLenPdf::27                      0                       # What read queue length does an incoming req see
system.mem_ctrls.rdQLenPdf::28                      0                       # What read queue length does an incoming req see
system.mem_ctrls.rdQLenPdf::29                      0                       # What read queue length does an incoming req see
system.mem_ctrls.rdQLenPdf::30                      0                       # What read queue length does an incoming req see
system.mem_ctrls.rdQLenPdf::31                      0                       # What read queue length does an incoming req see
system.mem_ctrls.wrQLenPdf::0                       1                       # What write queue length does an incoming req see
system.mem_ctrls.wrQLenPdf::1                       1                       # What write queue length does an incoming req see
system.mem_ctrls.wrQLenPdf::2                       1                       # What write queue length does an incoming req see
system.mem_ctrls.wrQLenPdf::3                       1                       # What write queue length does an incoming req see
system.mem_ctrls.wrQLenPdf::4                       1                       # What write queue length does an incoming req see
system.mem_ctrls.wrQLenPdf::5                       1                       # What write queue length does an incoming req see
system.mem_ctrls.wrQLenPdf::6                       1                       # What write queue length does an incoming req see
system.mem_ctrls.wrQLenPdf::7                       1                       # What write queue length does an incoming req see
system.mem_ctrls.wrQLenPdf::8                       1                       # What write queue length does an incoming req see
system.mem_ctrls.wrQLenPdf::9                       1                       # What write queue length does an incoming req see
system.mem_ctrls.wrQLenPdf::10                      1                       # What write queue length does an incoming req see
system.mem_ctrls.wrQLenPdf::11                      1                       # What write queue length does an incoming req see
system.mem_ctrls.wrQLenPdf::12                      1                       # What write queue length does an incoming req see
system.mem_ctrls.wrQLenPdf::13                      1                       # What write queue length does an incoming req see
system.mem_ctrls.wrQLenPdf::14                      1                       # What write queue length does an incoming req see
system.mem_ctrls.wrQLenPdf::15                      1                       # What write queue length does an incoming req see
system.mem_ctrls.wrQLenPdf::16                      1                       # What write queue length does an incoming req see
system.mem_ctrls.wrQLenPdf::17                      1                       # What write queue length does an incoming req see
system.mem_ctrls.wrQLenPdf::18                      1                       # What write queue length does an incoming req see
system.mem_ctrls.wrQLenPdf::19                      1                       # What write queue length does an incoming req see
system.mem_ctrls.wrQLenPdf::20                      1                       # What write queue length does an incoming req see
system.mem_ctrls.wrQLenPdf::21                      1                       # What write queue length does an incoming req see
system.mem_ctrls.wrQLenPdf::22                      1                       # What write queue length does an incoming req see
system.mem_ctrls.wrQLenPdf::23                      1                       # What write queue length does an incoming req see
system.mem_ctrls.wrQLenPdf::24                      1                       # What write queue length does an incoming req see
system.mem_ctrls.wrQLenPdf::25                      1                       # What write queue length does an incoming req see
system.mem_ctrls.wrQLenPdf::26                      1                       # What write queue length does an incoming req see
system.mem_ctrls.wrQLenPdf::27                      1                       # What write queue length does an incoming req see
system.mem_ctrls.wrQLenPdf::28                      1                       # What write queue length does an incoming req see
system.mem_ctrls.wrQLenPdf::29                      1                       # What write queue length does an incoming req see
system.mem_ctrls.wrQLenPdf::30                      1                       # What write queue length does an incoming req see
system.mem_ctrls.wrQLenPdf::31                      1                       # What write queue length does an incoming req see
system.mem_ctrls.wrQLenPdf::32                      0                       # What write queue length does an incoming req see
system.mem_ctrls.wrQLenPdf::33                      0                       # What write queue length does an incoming req see
system.mem_ctrls.wrQLenPdf::34                      0                       # What write queue length does an incoming req see
system.mem_ctrls.wrQLenPdf::35                      0                       # What write queue length does an incoming req see
system.mem_ctrls.wrQLenPdf::36                      0                       # What write queue length does an incoming req see
system.mem_ctrls.wrQLenPdf::37                      0                       # What write queue length does an incoming req see
system.mem_ctrls.wrQLenPdf::38                      0                       # What write queue length does an incoming req see
system.mem_ctrls.wrQLenPdf::39                      0                       # What write queue length does an incoming req see
system.mem_ctrls.wrQLenPdf::40                      0                       # What write queue length does an incoming req see
system.mem_ctrls.wrQLenPdf::41                      0                       # What write queue length does an incoming req see
system.mem_ctrls.wrQLenPdf::42                      0                       # What write queue length does an incoming req see
system.mem_ctrls.wrQLenPdf::43                      0                       # What write queue length does an incoming req see
system.mem_ctrls.wrQLenPdf::44                      0                       # What write queue length does an incoming req see
system.mem_ctrls.wrQLenPdf::45                      0                       # What write queue length does an incoming req see
system.mem_ctrls.wrQLenPdf::46                      0                       # What write queue length does an incoming req see
system.mem_ctrls.wrQLenPdf::47                      0                       # What write queue length does an incoming req see
system.mem_ctrls.wrQLenPdf::48                      0                       # What write queue length does an incoming req see
system.mem_ctrls.wrQLenPdf::49                      0                       # What write queue length does an incoming req see
system.mem_ctrls.wrQLenPdf::50                      0                       # What write queue length does an incoming req see
system.mem_ctrls.wrQLenPdf::51                      0                       # What write queue length does an incoming req see
system.mem_ctrls.wrQLenPdf::52                      0                       # What write queue length does an incoming req see
system.mem_ctrls.wrQLenPdf::53                      0                       # What write queue length does an incoming req see
system.mem_ctrls.wrQLenPdf::54                      0                       # What write queue length does an incoming req see
system.mem_ctrls.wrQLenPdf::55                      0                       # What write queue length does an incoming req see
system.mem_ctrls.wrQLenPdf::56                      0                       # What write queue length does an incoming req see
system.mem_ctrls.wrQLenPdf::57                      0                       # What write queue length does an incoming req see
system.mem_ctrls.wrQLenPdf::58                      0                       # What write queue length does an incoming req see
system.mem_ctrls.wrQLenPdf::59                      0                       # What write queue length does an incoming req see
system.mem_ctrls.wrQLenPdf::60                      0                       # What write queue length does an incoming req see
system.mem_ctrls.wrQLenPdf::61                      0                       # What write queue length does an incoming req see
system.mem_ctrls.wrQLenPdf::62                      0                       # What write queue length does an incoming req see
system.mem_ctrls.wrQLenPdf::63                      0                       # What write queue length does an incoming req see
system.mem_ctrls.bytesPerActivate::samples         2473                       # Bytes accessed per row activation
system.mem_ctrls.bytesPerActivate::mean    182.398706                       # Bytes accessed per row activation
system.mem_ctrls.bytesPerActivate::gmean   102.781896                       # Bytes accessed per row activation
system.mem_ctrls.bytesPerActivate::stdev   271.880705                       # Bytes accessed per row activation
system.mem_ctrls.bytesPerActivate::0-127         1798     72.71%     72.71% # Bytes accessed per row activation
system.mem_ctrls.bytesPerActivate::128-255          252     10.19%     82.90% # Bytes accessed per row activation
system.mem_ctrls.bytesPerActivate::256-383           90      3.64%     86.53% # Bytes accessed per row activation
system.mem_ctrls.bytesPerActivate::384-511           62      2.51%     89.04% # Bytes accessed per row activation
system.mem_ctrls.bytesPerActivate::512-639           28      1.13%     90.17% # Bytes accessed per row activation
system.mem_ctrls.bytesPerActivate::640-767           19      0.77%     90.94% # Bytes accessed per row activation
system.mem_ctrls.bytesPerActivate::768-895           33      1.33%     92.28% # Bytes accessed per row activation
system.mem_ctrls.bytesPerActivate::896-1023           14      0.57%     92.84% # Bytes accessed per row activation
system.mem_ctrls.bytesPerActivate::1024-1151          177      7.16%    100.00% # Bytes accessed per row activation
system.mem_ctrls.bytesPerActivate::total         2473                       # Bytes accessed per row activation
system.mem_ctrls.totQLat                     74098250                       # Total ticks spent queuing
system.mem_ctrls.totMemAccLat               206248250                       # Total ticks spent from burst creation until serviced by the DRAM
system.mem_ctrls.totBusLat                   35240000                       # Total ticks spent in databus transfers
system.mem_ctrls.avgQLat                     10513.37                       # Average queueing delay per DRAM burst
system.mem_ctrls.avgBusLat                    5000.00                       # Average bus latency per DRAM burst
system.mem_ctrls.avgMemAccLat                29263.37                       # Average memory access latency per DRAM burst
system.mem_ctrls.avgRdBW                         0.47                       # Average DRAM read bandwidth in MiByte/s
system.mem_ctrls.avgWrBW                         0.00                       # Average achieved write bandwidth in MiByte/s
system.mem_ctrls.avgRdBWSys                      0.47                       # Average system read bandwidth in MiByte/s
system.mem_ctrls.avgWrBWSys                      0.00                       # Average system write bandwidth in MiByte/s
system.mem_ctrls.peakBW                      12800.00                       # Theoretical peak bandwidth in MiByte/s
system.mem_ctrls.busUtil                         0.00                       # Data bus utilization in percentage
system.mem_ctrls.busUtilRead                     0.00                       # Data bus utilization in percentage for reads
system.mem_ctrls.busUtilWrite                    0.00                       # Data bus utilization in percentage for writes
system.mem_ctrls.avgRdQLen                       1.00                       # Average read queue length when enqueuing
system.mem_ctrls.avgWrQLen                      30.48                       # Average write queue length when enqueuing
system.mem_ctrls.readRowHits                     4575                       # Number of row buffer hits during reads
system.mem_ctrls.writeRowHits                       0                       # Number of row buffer hits during writes
system.mem_ctrls.readRowHitRate                 64.91                       # Row buffer hit rate for reads
system.mem_ctrls.writeRowHitRate                 0.00                       # Row buffer hit rate for writes
system.mem_ctrls.avgGap                   47969533.75                       # Average gap between requests
system.mem_ctrls.pageHitRate                    64.62                       # Row buffer hit rate, read and write combined
system.mem_ctrls_0.actEnergy                  8792280                       # Energy for activate commands per rank (pJ)
system.mem_ctrls_0.preEnergy                  4797375                       # Energy for precharge commands per rank (pJ)
system.mem_ctrls_0.readEnergy                23852400                       # Energy for read commands per rank (pJ)
system.mem_ctrls_0.writeEnergy                      0                       # Energy for write commands per rank (pJ)
system.mem_ctrls_0.refreshEnergy          62433368400                       # Energy for refresh commands per rank (pJ)
system.mem_ctrls_0.actBackEnergy          22873092525                       # Energy for active background per rank (pJ)
system.mem_ctrls_0.preBackEnergy         553463420250                       # Energy for precharge background per rank (pJ)
system.mem_ctrls_0.totalEnergy           638807323230                       # Total energy per rank (pJ)
system.mem_ctrls_0.averagePower            668.292923                       # Core power per rank (mW)
system.mem_ctrls_0.memoryStateTime::IDLE 920741422500                       # Time in different power states
system.mem_ctrls_0.memoryStateTime::REF   31918900000                       # Time in different power states
system.mem_ctrls_0.memoryStateTime::PRE_PDN            0                       # Time in different power states
system.mem_ctrls_0.memoryStateTime::ACT    3218918750                       # Time in different power states
system.mem_ctrls_0.memoryStateTime::ACT_PDN            0                       # Time in different power states
system.mem_ctrls_1.actEnergy                  9903600                       # Energy for activate commands per rank (pJ)
system.mem_ctrls_1.preEnergy                  5403750                       # Energy for precharge commands per rank (pJ)
system.mem_ctrls_1.readEnergy                31122000                       # Energy for read commands per rank (pJ)
system.mem_ctrls_1.writeEnergy                      0                       # Energy for write commands per rank (pJ)
system.mem_ctrls_1.refreshEnergy          62433368400                       # Energy for refresh commands per rank (pJ)
system.mem_ctrls_1.actBackEnergy          23108205555                       # Energy for active background per rank (pJ)
system.mem_ctrls_1.preBackEnergy         553257180750                       # Energy for precharge background per rank (pJ)
system.mem_ctrls_1.totalEnergy           638845184055                       # Total energy per rank (pJ)
system.mem_ctrls_1.averagePower            668.332532                       # Core power per rank (mW)
system.mem_ctrls_1.memoryStateTime::IDLE 920397250750                       # Time in different power states
system.mem_ctrls_1.memoryStateTime::REF   31918900000                       # Time in different power states
system.mem_ctrls_1.memoryStateTime::PRE_PDN            0                       # Time in different power states
system.mem_ctrls_1.memoryStateTime::ACT    3563090500                       # Time in different power states
system.mem_ctrls_1.memoryStateTime::ACT_PDN            0                       # Time in different power states
system.cpu_voltage_domain.voltage                   1                       # Voltage in Volts
system.cpu_clk_domain.clock                       500                       # Clock period in ticks
system.cpu.apic_clk_domain.clock                 8000                       # Clock period in ticks
system.cpu.workload.num_syscalls                   35                       # Number of system calls
system.cpu.numCycles                       1911763263                       # number of cpu cycles simulated
system.cpu.numWorkItemsStarted                      0                       # number of work items this cpu started
system.cpu.numWorkItemsCompleted                    0                       # number of work items this cpu completed
system.cpu.committedInsts                   500000000                       # Number of instructions committed
system.cpu.committedOps                     644895733                       # Number of ops (including micro ops) committed
system.cpu.num_int_alu_accesses             625873233                       # Number of integer alu accesses
system.cpu.num_fp_alu_accesses               27676254                       # Number of float alu accesses
system.cpu.num_func_calls                     1531165                       # number of times a function call or return occured
system.cpu.num_conditional_control_insts     25302281                       # number of instructions that are conditional controls
system.cpu.num_int_insts                    625873233                       # number of integer instructions
system.cpu.num_fp_insts                      27676254                       # number of float instructions
system.cpu.num_int_register_reads          1467548657                       # number of times the integer registers were read
system.cpu.num_int_register_writes          569494356                       # number of times the integer registers were written
system.cpu.num_fp_register_reads             21879879                       # number of times the floating registers were read
system.cpu.num_fp_register_writes            23672685                       # number of times the floating registers were written
system.cpu.num_cc_register_reads            187332012                       # number of times the CC registers were read
system.cpu.num_cc_register_writes           260734382                       # number of times the CC registers were written
system.cpu.num_mem_refs                     254894307                       # number of memory refs
system.cpu.num_load_insts                   219204129                       # Number of load instructions
system.cpu.num_store_insts                   35690178                       # Number of store instructions
system.cpu.num_idle_cycles                          0                       # Number of idle cycles
system.cpu.num_busy_cycles                 1911763263                       # Number of busy cycles
system.cpu.not_idle_fraction                        1                       # Percentage of non-idle cycles
system.cpu.idle_fraction                            0                       # Percentage of idle cycles
system.cpu.Branches                          27605108                       # Number of branches fetched
system.cpu.op_class::No_OpClass               1502715      0.23%      0.23% # Class of executed instruction
system.cpu.op_class::IntAlu                 363720567     56.40%     56.63% # Class of executed instruction
system.cpu.op_class::IntMult                   618823      0.10%     56.73% # Class of executed instruction
system.cpu.op_class::IntDiv                   6323450      0.98%     57.71% # Class of executed instruction
system.cpu.op_class::FloatAdd                17835871      2.77%     60.48% # Class of executed instruction
system.cpu.op_class::FloatCmp                       0      0.00%     60.48% # Class of executed instruction
system.cpu.op_class::FloatCvt                       0      0.00%     60.48% # Class of executed instruction
system.cpu.op_class::FloatMult                      0      0.00%     60.48% # Class of executed instruction
system.cpu.op_class::FloatDiv                       0      0.00%     60.48% # Class of executed instruction
system.cpu.op_class::FloatSqrt                      0      0.00%     60.48% # Class of executed instruction
system.cpu.op_class::SimdAdd                        0      0.00%     60.48% # Class of executed instruction
system.cpu.op_class::SimdAddAcc                     0      0.00%     60.48% # Class of executed instruction
system.cpu.op_class::SimdAlu                        0      0.00%     60.48% # Class of executed instruction
system.cpu.op_class::SimdCmp                        0      0.00%     60.48% # Class of executed instruction
system.cpu.op_class::SimdCvt                        0      0.00%     60.48% # Class of executed instruction
system.cpu.op_class::SimdMisc                       0      0.00%     60.48% # Class of executed instruction
system.cpu.op_class::SimdMult                       0      0.00%     60.48% # Class of executed instruction
system.cpu.op_class::SimdMultAcc                    0      0.00%     60.48% # Class of executed instruction
system.cpu.op_class::SimdShift                      0      0.00%     60.48% # Class of executed instruction
system.cpu.op_class::SimdShiftAcc                   0      0.00%     60.48% # Class of executed instruction
system.cpu.op_class::SimdSqrt                       0      0.00%     60.48% # Class of executed instruction
system.cpu.op_class::SimdFloatAdd                   0      0.00%     60.48% # Class of executed instruction
system.cpu.op_class::SimdFloatAlu                   0      0.00%     60.48% # Class of executed instruction
system.cpu.op_class::SimdFloatCmp                   0      0.00%     60.48% # Class of executed instruction
system.cpu.op_class::SimdFloatCvt                   0      0.00%     60.48% # Class of executed instruction
system.cpu.op_class::SimdFloatDiv                   0      0.00%     60.48% # Class of executed instruction
system.cpu.op_class::SimdFloatMisc                  0      0.00%     60.48% # Class of executed instruction
system.cpu.op_class::SimdFloatMult                  0      0.00%     60.48% # Class of executed instruction
system.cpu.op_class::SimdFloatMultAcc               0      0.00%     60.48% # Class of executed instruction
system.cpu.op_class::SimdFloatSqrt                  0      0.00%     60.48% # Class of executed instruction
system.cpu.op_class::MemRead                219204129     33.99%     94.47% # Class of executed instruction
system.cpu.op_class::MemWrite                35690178      5.53%    100.00% # Class of executed instruction
system.cpu.op_class::IprAccess                      0      0.00%    100.00% # Class of executed instruction
system.cpu.op_class::InstPrefetch                   0      0.00%    100.00% # Class of executed instruction
system.cpu.op_class::total                  644895733                       # Class of executed instruction
system.cpu.dcache.tags.replacements            386857                       # number of replacements
system.cpu.dcache.tags.tagsinuse          1023.408547                       # Cycle average of tags in use
system.cpu.dcache.tags.total_refs           254506970                       # Total number of references to valid blocks.
system.cpu.dcache.tags.sampled_refs            387881                       # Sample count of references to valid blocks.
system.cpu.dcache.tags.avg_refs            656.147040                       # Average number of references to valid blocks.
system.cpu.dcache.tags.warmup_cycle        3017129500                       # Cycle when the warmup percentage was hit.
system.cpu.dcache.tags.occ_blocks::cpu.data  1023.408547                       # Average occupied blocks per requestor
system.cpu.dcache.tags.occ_percent::cpu.data     0.999422                       # Average percentage of cache occupancy
system.cpu.dcache.tags.occ_percent::total     0.999422                       # Average percentage of cache occupancy
system.cpu.dcache.tags.occ_task_id_blocks::1024         1024                       # Occupied blocks per task id
system.cpu.dcache.tags.age_task_id_blocks_1024::0            5                       # Occupied blocks per task id
system.cpu.dcache.tags.age_task_id_blocks_1024::1           48                       # Occupied blocks per task id
system.cpu.dcache.tags.age_task_id_blocks_1024::2          405                       # Occupied blocks per task id
system.cpu.dcache.tags.age_task_id_blocks_1024::3          505                       # Occupied blocks per task id
system.cpu.dcache.tags.age_task_id_blocks_1024::4           61                       # Occupied blocks per task id
system.cpu.dcache.tags.occ_task_id_percent::1024            1                       # Percentage of cache occupancy per task id
system.cpu.dcache.tags.tag_accesses        1019967285                       # Number of tag accesses
system.cpu.dcache.tags.data_accesses       1019967285                       # Number of data accesses
system.cpu.dcache.ReadReq_hits::cpu.data    219112061                       # number of ReadReq hits
system.cpu.dcache.ReadReq_hits::total       219112061                       # number of ReadReq hits
system.cpu.dcache.WriteReq_hits::cpu.data     35394615                       # number of WriteReq hits
system.cpu.dcache.WriteReq_hits::total       35394615                       # number of WriteReq hits
system.cpu.dcache.SoftPFReq_hits::cpu.data          294                       # number of SoftPFReq hits
system.cpu.dcache.SoftPFReq_hits::total           294                       # number of SoftPFReq hits
system.cpu.dcache.demand_hits::cpu.data     254506676                       # number of demand (read+write) hits
system.cpu.dcache.demand_hits::total        254506676                       # number of demand (read+write) hits
system.cpu.dcache.overall_hits::cpu.data    254506970                       # number of overall hits
system.cpu.dcache.overall_hits::total       254506970                       # number of overall hits
system.cpu.dcache.ReadReq_misses::cpu.data        86449                       # number of ReadReq misses
system.cpu.dcache.ReadReq_misses::total         86449                       # number of ReadReq misses
system.cpu.dcache.WriteReq_misses::cpu.data       295608                       # number of WriteReq misses
system.cpu.dcache.WriteReq_misses::total       295608                       # number of WriteReq misses
system.cpu.dcache.SoftPFReq_misses::cpu.data         5824                       # number of SoftPFReq misses
system.cpu.dcache.SoftPFReq_misses::total         5824                       # number of SoftPFReq misses
system.cpu.dcache.demand_misses::cpu.data       382057                       # number of demand (read+write) misses
system.cpu.dcache.demand_misses::total         382057                       # number of demand (read+write) misses
system.cpu.dcache.overall_misses::cpu.data       387881                       # number of overall misses
system.cpu.dcache.overall_misses::total        387881                       # number of overall misses
system.cpu.dcache.ReadReq_miss_latency::cpu.data   1168839500                       # number of ReadReq miss cycles
system.cpu.dcache.ReadReq_miss_latency::total   1168839500                       # number of ReadReq miss cycles
system.cpu.dcache.WriteReq_miss_latency::cpu.data   4111500000                       # number of WriteReq miss cycles
system.cpu.dcache.WriteReq_miss_latency::total   4111500000                       # number of WriteReq miss cycles
system.cpu.dcache.demand_miss_latency::cpu.data   5280339500                       # number of demand (read+write) miss cycles
system.cpu.dcache.demand_miss_latency::total   5280339500                       # number of demand (read+write) miss cycles
system.cpu.dcache.overall_miss_latency::cpu.data   5280339500                       # number of overall miss cycles
system.cpu.dcache.overall_miss_latency::total   5280339500                       # number of overall miss cycles
system.cpu.dcache.ReadReq_accesses::cpu.data    219198510                       # number of ReadReq accesses(hits+misses)
system.cpu.dcache.ReadReq_accesses::total    219198510                       # number of ReadReq accesses(hits+misses)
system.cpu.dcache.WriteReq_accesses::cpu.data     35690223                       # number of WriteReq accesses(hits+misses)
system.cpu.dcache.WriteReq_accesses::total     35690223                       # number of WriteReq accesses(hits+misses)
system.cpu.dcache.SoftPFReq_accesses::cpu.data         6118                       # number of SoftPFReq accesses(hits+misses)
system.cpu.dcache.SoftPFReq_accesses::total         6118                       # number of SoftPFReq accesses(hits+misses)
system.cpu.dcache.demand_accesses::cpu.data    254888733                       # number of demand (read+write) accesses
system.cpu.dcache.demand_accesses::total    254888733                       # number of demand (read+write) accesses
system.cpu.dcache.overall_accesses::cpu.data    254894851                       # number of overall (read+write) accesses
system.cpu.dcache.overall_accesses::total    254894851                       # number of overall (read+write) accesses
system.cpu.dcache.ReadReq_miss_rate::cpu.data     0.000394                       # miss rate for ReadReq accesses
system.cpu.dcache.ReadReq_miss_rate::total     0.000394                       # miss rate for ReadReq accesses
system.cpu.dcache.WriteReq_miss_rate::cpu.data     0.008283                       # miss rate for WriteReq accesses
system.cpu.dcache.WriteReq_miss_rate::total     0.008283                       # miss rate for WriteReq accesses
system.cpu.dcache.SoftPFReq_miss_rate::cpu.data     0.951945                       # miss rate for SoftPFReq accesses
system.cpu.dcache.SoftPFReq_miss_rate::total     0.951945                       # miss rate for SoftPFReq accesses
system.cpu.dcache.demand_miss_rate::cpu.data     0.001499                       # miss rate for demand accesses
system.cpu.dcache.demand_miss_rate::total     0.001499                       # miss rate for demand accesses
system.cpu.dcache.overall_miss_rate::cpu.data     0.001522                       # miss rate for overall accesses
system.cpu.dcache.overall_miss_rate::total     0.001522                       # miss rate for overall accesses
system.cpu.dcache.ReadReq_avg_miss_latency::cpu.data 13520.567040                       # average ReadReq miss latency
system.cpu.dcache.ReadReq_avg_miss_latency::total 13520.567040                       # average ReadReq miss latency
system.cpu.dcache.WriteReq_avg_miss_latency::cpu.data 13908.622229                       # average WriteReq miss latency
system.cpu.dcache.WriteReq_avg_miss_latency::total 13908.622229                       # average WriteReq miss latency
system.cpu.dcache.demand_avg_miss_latency::cpu.data 13820.816004                       # average overall miss latency
system.cpu.dcache.demand_avg_miss_latency::total 13820.816004                       # average overall miss latency
system.cpu.dcache.overall_avg_miss_latency::cpu.data 13613.297635                       # average overall miss latency
system.cpu.dcache.overall_avg_miss_latency::total 13613.297635                       # average overall miss latency
system.cpu.dcache.blocked_cycles::no_mshrs        14771                       # number of cycles access was blocked
system.cpu.dcache.blocked_cycles::no_targets            0                       # number of cycles access was blocked
system.cpu.dcache.blocked::no_mshrs               590                       # number of cycles access was blocked
system.cpu.dcache.blocked::no_targets               0                       # number of cycles access was blocked
system.cpu.dcache.avg_blocked_cycles::no_mshrs    25.035593                       # average number of cycles each access was blocked
system.cpu.dcache.avg_blocked_cycles::no_targets          nan                       # average number of cycles each access was blocked
system.cpu.dcache.fast_writes                       0                       # number of fast writes performed
system.cpu.dcache.cache_copies                      0                       # number of cache copies performed
system.cpu.dcache.writebacks::writebacks       381293                       # number of writebacks
system.cpu.dcache.writebacks::total            381293                       # number of writebacks
system.cpu.dcache.ReadReq_mshr_misses::cpu.data        86449                       # number of ReadReq MSHR misses
system.cpu.dcache.ReadReq_mshr_misses::total        86449                       # number of ReadReq MSHR misses
system.cpu.dcache.WriteReq_mshr_misses::cpu.data       295608                       # number of WriteReq MSHR misses
system.cpu.dcache.WriteReq_mshr_misses::total       295608                       # number of WriteReq MSHR misses
system.cpu.dcache.SoftPFReq_mshr_misses::cpu.data         5824                       # number of SoftPFReq MSHR misses
system.cpu.dcache.SoftPFReq_mshr_misses::total         5824                       # number of SoftPFReq MSHR misses
system.cpu.dcache.demand_mshr_misses::cpu.data       382057                       # number of demand (read+write) MSHR misses
system.cpu.dcache.demand_mshr_misses::total       382057                       # number of demand (read+write) MSHR misses
system.cpu.dcache.overall_mshr_misses::cpu.data       387881                       # number of overall MSHR misses
system.cpu.dcache.overall_mshr_misses::total       387881                       # number of overall MSHR misses
system.cpu.dcache.ReadReq_mshr_miss_latency::cpu.data   1082390500                       # number of ReadReq MSHR miss cycles
system.cpu.dcache.ReadReq_mshr_miss_latency::total   1082390500                       # number of ReadReq MSHR miss cycles
system.cpu.dcache.WriteReq_mshr_miss_latency::cpu.data   3815892000                       # number of WriteReq MSHR miss cycles
system.cpu.dcache.WriteReq_mshr_miss_latency::total   3815892000                       # number of WriteReq MSHR miss cycles
system.cpu.dcache.SoftPFReq_mshr_miss_latency::cpu.data    154311500                       # number of SoftPFReq MSHR miss cycles
system.cpu.dcache.SoftPFReq_mshr_miss_latency::total    154311500                       # number of SoftPFReq MSHR miss cycles
system.cpu.dcache.demand_mshr_miss_latency::cpu.data   4898282500                       # number of demand (read+write) MSHR miss cycles
system.cpu.dcache.demand_mshr_miss_latency::total   4898282500                       # number of demand (read+write) MSHR miss cycles
system.cpu.dcache.overall_mshr_miss_latency::cpu.data   5052594000                       # number of overall MSHR miss cycles
system.cpu.dcache.overall_mshr_miss_latency::total   5052594000                       # number of overall MSHR miss cycles
system.cpu.dcache.ReadReq_mshr_miss_rate::cpu.data     0.000394                       # mshr miss rate for ReadReq accesses
system.cpu.dcache.ReadReq_mshr_miss_rate::total     0.000394                       # mshr miss rate for ReadReq accesses
system.cpu.dcache.WriteReq_mshr_miss_rate::cpu.data     0.008283                       # mshr miss rate for WriteReq accesses
system.cpu.dcache.WriteReq_mshr_miss_rate::total     0.008283                       # mshr miss rate for WriteReq accesses
system.cpu.dcache.SoftPFReq_mshr_miss_rate::cpu.data     0.951945                       # mshr miss rate for SoftPFReq accesses
system.cpu.dcache.SoftPFReq_mshr_miss_rate::total     0.951945                       # mshr miss rate for SoftPFReq accesses
system.cpu.dcache.demand_mshr_miss_rate::cpu.data     0.001499                       # mshr miss rate for demand accesses
system.cpu.dcache.demand_mshr_miss_rate::total     0.001499                       # mshr miss rate for demand accesses
system.cpu.dcache.overall_mshr_miss_rate::cpu.data     0.001522                       # mshr miss rate for overall accesses
system.cpu.dcache.overall_mshr_miss_rate::total     0.001522                       # mshr miss rate for overall accesses
system.cpu.dcache.ReadReq_avg_mshr_miss_latency::cpu.data 12520.567040                       # average ReadReq mshr miss latency
system.cpu.dcache.ReadReq_avg_mshr_miss_latency::total 12520.567040                       # average ReadReq mshr miss latency
system.cpu.dcache.WriteReq_avg_mshr_miss_latency::cpu.data 12908.622229                       # average WriteReq mshr miss latency
system.cpu.dcache.WriteReq_avg_mshr_miss_latency::total 12908.622229                       # average WriteReq mshr miss latency
system.cpu.dcache.SoftPFReq_avg_mshr_miss_latency::cpu.data 26495.793269                       # average SoftPFReq mshr miss latency
system.cpu.dcache.SoftPFReq_avg_mshr_miss_latency::total 26495.793269                       # average SoftPFReq mshr miss latency
system.cpu.dcache.demand_avg_mshr_miss_latency::cpu.data 12820.816004                       # average overall mshr miss latency
system.cpu.dcache.demand_avg_mshr_miss_latency::total 12820.816004                       # average overall mshr miss latency
system.cpu.dcache.overall_avg_mshr_miss_latency::cpu.data 13026.144617                       # average overall mshr miss latency
system.cpu.dcache.overall_avg_mshr_miss_latency::total 13026.144617                       # average overall mshr miss latency
system.cpu.dcache.no_allocate_misses                0                       # Number of misses that were no-allocate
system.cpu.dtb_walker_cache.tags.replacements            0                       # number of replacements
system.cpu.dtb_walker_cache.tags.tagsinuse            0                       # Cycle average of tags in use
system.cpu.dtb_walker_cache.tags.total_refs            0                       # Total number of references to valid blocks.
system.cpu.dtb_walker_cache.tags.sampled_refs            0                       # Sample count of references to valid blocks.
system.cpu.dtb_walker_cache.tags.avg_refs          nan                       # Average number of references to valid blocks.
system.cpu.dtb_walker_cache.tags.warmup_cycle            0                       # Cycle when the warmup percentage was hit.
system.cpu.dtb_walker_cache.tags.tag_accesses            0                       # Number of tag accesses
system.cpu.dtb_walker_cache.tags.data_accesses            0                       # Number of data accesses
system.cpu.dtb_walker_cache.blocked_cycles::no_mshrs            0                       # number of cycles access was blocked
system.cpu.dtb_walker_cache.blocked_cycles::no_targets            0                       # number of cycles access was blocked
system.cpu.dtb_walker_cache.blocked::no_mshrs            0                       # number of cycles access was blocked
system.cpu.dtb_walker_cache.blocked::no_targets            0                       # number of cycles access was blocked
system.cpu.dtb_walker_cache.avg_blocked_cycles::no_mshrs          nan                       # average number of cycles each access was blocked
system.cpu.dtb_walker_cache.avg_blocked_cycles::no_targets          nan                       # average number of cycles each access was blocked
system.cpu.dtb_walker_cache.fast_writes             0                       # number of fast writes performed
system.cpu.dtb_walker_cache.cache_copies            0                       # number of cache copies performed
system.cpu.dtb_walker_cache.no_allocate_misses            0                       # Number of misses that were no-allocate
system.cpu.icache.tags.replacements               897                       # number of replacements
system.cpu.icache.tags.tagsinuse           511.974523                       # Cycle average of tags in use
system.cpu.icache.tags.total_refs           695976656                       # Total number of references to valid blocks.
system.cpu.icache.tags.sampled_refs              1409                       # Sample count of references to valid blocks.
system.cpu.icache.tags.avg_refs          493950.784954                       # Average number of references to valid blocks.
system.cpu.icache.tags.warmup_cycle         631315500                       # Cycle when the warmup percentage was hit.
system.cpu.icache.tags.occ_blocks::cpu.inst   511.974523                       # Average occupied blocks per requestor
system.cpu.icache.tags.occ_percent::cpu.inst     0.999950                       # Average percentage of cache occupancy
system.cpu.icache.tags.occ_percent::total     0.999950                       # Average percentage of cache occupancy
system.cpu.icache.tags.occ_task_id_blocks::1024          512                       # Occupied blocks per task id
system.cpu.icache.tags.age_task_id_blocks_1024::4          512                       # Occupied blocks per task id
system.cpu.icache.tags.occ_task_id_percent::1024            1                       # Percentage of cache occupancy per task id
system.cpu.icache.tags.tag_accesses        5567825929                       # Number of tag accesses
system.cpu.icache.tags.data_accesses       5567825929                       # Number of data accesses
system.cpu.icache.ReadReq_hits::cpu.inst    695976656                       # number of ReadReq hits
system.cpu.icache.ReadReq_hits::total       695976656                       # number of ReadReq hits
system.cpu.icache.demand_hits::cpu.inst     695976656                       # number of demand (read+write) hits
system.cpu.icache.demand_hits::total        695976656                       # number of demand (read+write) hits
system.cpu.icache.overall_hits::cpu.inst    695976656                       # number of overall hits
system.cpu.icache.overall_hits::total       695976656                       # number of overall hits
system.cpu.icache.ReadReq_misses::cpu.inst         1409                       # number of ReadReq misses
system.cpu.icache.ReadReq_misses::total          1409                       # number of ReadReq misses
system.cpu.icache.demand_misses::cpu.inst         1409                       # number of demand (read+write) misses
system.cpu.icache.demand_misses::total           1409                       # number of demand (read+write) misses
system.cpu.icache.overall_misses::cpu.inst         1409                       # number of overall misses
system.cpu.icache.overall_misses::total          1409                       # number of overall misses
system.cpu.icache.ReadReq_miss_latency::cpu.inst    105620000                       # number of ReadReq miss cycles
system.cpu.icache.ReadReq_miss_latency::total    105620000                       # number of ReadReq miss cycles
system.cpu.icache.demand_miss_latency::cpu.inst    105620000                       # number of demand (read+write) miss cycles
system.cpu.icache.demand_miss_latency::total    105620000                       # number of demand (read+write) miss cycles
system.cpu.icache.overall_miss_latency::cpu.inst    105620000                       # number of overall miss cycles
system.cpu.icache.overall_miss_latency::total    105620000                       # number of overall miss cycles
system.cpu.icache.ReadReq_accesses::cpu.inst    695978065                       # number of ReadReq accesses(hits+misses)
system.cpu.icache.ReadReq_accesses::total    695978065                       # number of ReadReq accesses(hits+misses)
system.cpu.icache.demand_accesses::cpu.inst    695978065                       # number of demand (read+write) accesses
system.cpu.icache.demand_accesses::total    695978065                       # number of demand (read+write) accesses
system.cpu.icache.overall_accesses::cpu.inst    695978065                       # number of overall (read+write) accesses
system.cpu.icache.overall_accesses::total    695978065                       # number of overall (read+write) accesses
system.cpu.icache.ReadReq_miss_rate::cpu.inst     0.000002                       # miss rate for ReadReq accesses
system.cpu.icache.ReadReq_miss_rate::total     0.000002                       # miss rate for ReadReq accesses
system.cpu.icache.demand_miss_rate::cpu.inst     0.000002                       # miss rate for demand accesses
system.cpu.icache.demand_miss_rate::total     0.000002                       # miss rate for demand accesses
system.cpu.icache.overall_miss_rate::cpu.inst     0.000002                       # miss rate for overall accesses
system.cpu.icache.overall_miss_rate::total     0.000002                       # miss rate for overall accesses
system.cpu.icache.ReadReq_avg_miss_latency::cpu.inst 74960.965224                       # average ReadReq miss latency
system.cpu.icache.ReadReq_avg_miss_latency::total 74960.965224                       # average ReadReq miss latency
system.cpu.icache.demand_avg_miss_latency::cpu.inst 74960.965224                       # average overall miss latency
system.cpu.icache.demand_avg_miss_latency::total 74960.965224                       # average overall miss latency
system.cpu.icache.overall_avg_miss_latency::cpu.inst 74960.965224                       # average overall miss latency
system.cpu.icache.overall_avg_miss_latency::total 74960.965224                       # average overall miss latency
system.cpu.icache.blocked_cycles::no_mshrs            0                       # number of cycles access was blocked
system.cpu.icache.blocked_cycles::no_targets            0                       # number of cycles access was blocked
system.cpu.icache.blocked::no_mshrs                 0                       # number of cycles access was blocked
system.cpu.icache.blocked::no_targets               0                       # number of cycles access was blocked
system.cpu.icache.avg_blocked_cycles::no_mshrs          nan                       # average number of cycles each access was blocked
system.cpu.icache.avg_blocked_cycles::no_targets          nan                       # average number of cycles each access was blocked
system.cpu.icache.fast_writes                       0                       # number of fast writes performed
system.cpu.icache.cache_copies                      0                       # number of cache copies performed
system.cpu.icache.writebacks::writebacks          897                       # number of writebacks
system.cpu.icache.writebacks::total               897                       # number of writebacks
system.cpu.icache.ReadReq_mshr_misses::cpu.inst         1409                       # number of ReadReq MSHR misses
system.cpu.icache.ReadReq_mshr_misses::total         1409                       # number of ReadReq MSHR misses
system.cpu.icache.demand_mshr_misses::cpu.inst         1409                       # number of demand (read+write) MSHR misses
system.cpu.icache.demand_mshr_misses::total         1409                       # number of demand (read+write) MSHR misses
system.cpu.icache.overall_mshr_misses::cpu.inst         1409                       # number of overall MSHR misses
system.cpu.icache.overall_mshr_misses::total         1409                       # number of overall MSHR misses
system.cpu.icache.ReadReq_mshr_miss_latency::cpu.inst    104211000                       # number of ReadReq MSHR miss cycles
system.cpu.icache.ReadReq_mshr_miss_latency::total    104211000                       # number of ReadReq MSHR miss cycles
system.cpu.icache.demand_mshr_miss_latency::cpu.inst    104211000                       # number of demand (read+write) MSHR miss cycles
system.cpu.icache.demand_mshr_miss_latency::total    104211000                       # number of demand (read+write) MSHR miss cycles
system.cpu.icache.overall_mshr_miss_latency::cpu.inst    104211000                       # number of overall MSHR miss cycles
system.cpu.icache.overall_mshr_miss_latency::total    104211000                       # number of overall MSHR miss cycles
system.cpu.icache.ReadReq_mshr_miss_rate::cpu.inst     0.000002                       # mshr miss rate for ReadReq accesses
system.cpu.icache.ReadReq_mshr_miss_rate::total     0.000002                       # mshr miss rate for ReadReq accesses
system.cpu.icache.demand_mshr_miss_rate::cpu.inst     0.000002                       # mshr miss rate for demand accesses
system.cpu.icache.demand_mshr_miss_rate::total     0.000002                       # mshr miss rate for demand accesses
system.cpu.icache.overall_mshr_miss_rate::cpu.inst     0.000002                       # mshr miss rate for overall accesses
system.cpu.icache.overall_mshr_miss_rate::total     0.000002                       # mshr miss rate for overall accesses
system.cpu.icache.ReadReq_avg_mshr_miss_latency::cpu.inst 73960.965224                       # average ReadReq mshr miss latency
system.cpu.icache.ReadReq_avg_mshr_miss_latency::total 73960.965224                       # average ReadReq mshr miss latency
system.cpu.icache.demand_avg_mshr_miss_latency::cpu.inst 73960.965224                       # average overall mshr miss latency
system.cpu.icache.demand_avg_mshr_miss_latency::total 73960.965224                       # average overall mshr miss latency
system.cpu.icache.overall_avg_mshr_miss_latency::cpu.inst 73960.965224                       # average overall mshr miss latency
system.cpu.icache.overall_avg_mshr_miss_latency::total 73960.965224                       # average overall mshr miss latency
system.cpu.icache.no_allocate_misses                0                       # Number of misses that were no-allocate
system.cpu.itb_walker_cache.tags.replacements            0                       # number of replacements
system.cpu.itb_walker_cache.tags.tagsinuse            0                       # Cycle average of tags in use
system.cpu.itb_walker_cache.tags.total_refs            0                       # Total number of references to valid blocks.
system.cpu.itb_walker_cache.tags.sampled_refs            0                       # Sample count of references to valid blocks.
system.cpu.itb_walker_cache.tags.avg_refs          nan                       # Average number of references to valid blocks.
system.cpu.itb_walker_cache.tags.warmup_cycle            0                       # Cycle when the warmup percentage was hit.
system.cpu.itb_walker_cache.tags.tag_accesses            0                       # Number of tag accesses
system.cpu.itb_walker_cache.tags.data_accesses            0                       # Number of data accesses
system.cpu.itb_walker_cache.blocked_cycles::no_mshrs            0                       # number of cycles access was blocked
system.cpu.itb_walker_cache.blocked_cycles::no_targets            0                       # number of cycles access was blocked
system.cpu.itb_walker_cache.blocked::no_mshrs            0                       # number of cycles access was blocked
system.cpu.itb_walker_cache.blocked::no_targets            0                       # number of cycles access was blocked
system.cpu.itb_walker_cache.avg_blocked_cycles::no_mshrs          nan                       # average number of cycles each access was blocked
system.cpu.itb_walker_cache.avg_blocked_cycles::no_targets          nan                       # average number of cycles each access was blocked
system.cpu.itb_walker_cache.fast_writes             0                       # number of fast writes performed
system.cpu.itb_walker_cache.cache_copies            0                       # number of cache copies performed
system.cpu.itb_walker_cache.no_allocate_misses            0                       # Number of misses that were no-allocate
system.l2.tags.replacements                       471                       # number of replacements
system.l2.tags.tagsinuse                  5455.493204                       # Cycle average of tags in use
system.l2.tags.total_refs                      359232                       # Total number of references to valid blocks.
system.l2.tags.sampled_refs                      6334                       # Sample count of references to valid blocks.
system.l2.tags.avg_refs                     56.714872                       # Average number of references to valid blocks.
system.l2.tags.warmup_cycle                         0                       # Cycle when the warmup percentage was hit.
system.l2.tags.occ_blocks::writebacks     3869.619385                       # Average occupied blocks per requestor
system.l2.tags.occ_blocks::cpu.inst       1036.246928                       # Average occupied blocks per requestor
system.l2.tags.occ_blocks::cpu.data        549.626891                       # Average occupied blocks per requestor
system.l2.tags.occ_percent::writebacks       0.236183                       # Average percentage of cache occupancy
system.l2.tags.occ_percent::cpu.inst         0.063247                       # Average percentage of cache occupancy
system.l2.tags.occ_percent::cpu.data         0.033547                       # Average percentage of cache occupancy
system.l2.tags.occ_percent::total            0.332977                       # Average percentage of cache occupancy
system.l2.tags.occ_task_id_blocks::1024          5863                       # Occupied blocks per task id
system.l2.tags.age_task_id_blocks_1024::0            4                       # Occupied blocks per task id
system.l2.tags.age_task_id_blocks_1024::1           42                       # Occupied blocks per task id
system.l2.tags.age_task_id_blocks_1024::2          271                       # Occupied blocks per task id
system.l2.tags.age_task_id_blocks_1024::3          565                       # Occupied blocks per task id
system.l2.tags.age_task_id_blocks_1024::4         4981                       # Occupied blocks per task id
system.l2.tags.occ_task_id_percent::1024     0.357849                       # Percentage of cache occupancy per task id
system.l2.tags.tag_accesses                   1078985                       # Number of tag accesses
system.l2.tags.data_accesses                  1078985                       # Number of data accesses
system.l2.WritebackDirty_hits::writebacks       381293                       # number of WritebackDirty hits
system.l2.WritebackDirty_hits::total           381293                       # number of WritebackDirty hits
system.l2.WritebackClean_hits::writebacks          896                       # number of WritebackClean hits
system.l2.WritebackClean_hits::total              896                       # number of WritebackClean hits
system.l2.ReadExReq_hits::cpu.data             291825                       # number of ReadExReq hits
system.l2.ReadExReq_hits::total                291825                       # number of ReadExReq hits
system.l2.ReadCleanReq_hits::cpu.inst              76                       # number of ReadCleanReq hits
system.l2.ReadCleanReq_hits::total                 76                       # number of ReadCleanReq hits
system.l2.ReadSharedReq_hits::cpu.data          90325                       # number of ReadSharedReq hits
system.l2.ReadSharedReq_hits::total             90325                       # number of ReadSharedReq hits
system.l2.demand_hits::cpu.inst                    76                       # number of demand (read+write) hits
system.l2.demand_hits::cpu.data                382150                       # number of demand (read+write) hits
system.l2.demand_hits::total                   382226                       # number of demand (read+write) hits
system.l2.overall_hits::cpu.inst                   76                       # number of overall hits
system.l2.overall_hits::cpu.data               382150                       # number of overall hits
system.l2.overall_hits::total                  382226                       # number of overall hits
system.l2.ReadExReq_misses::cpu.data             3783                       # number of ReadExReq misses
system.l2.ReadExReq_misses::total                3783                       # number of ReadExReq misses
system.l2.ReadCleanReq_misses::cpu.inst          1333                       # number of ReadCleanReq misses
system.l2.ReadCleanReq_misses::total             1333                       # number of ReadCleanReq misses
system.l2.ReadSharedReq_misses::cpu.data         1948                       # number of ReadSharedReq misses
system.l2.ReadSharedReq_misses::total            1948                       # number of ReadSharedReq misses
system.l2.demand_misses::cpu.inst                1333                       # number of demand (read+write) misses
system.l2.demand_misses::cpu.data                5731                       # number of demand (read+write) misses
system.l2.demand_misses::total                   7064                       # number of demand (read+write) misses
system.l2.overall_misses::cpu.inst               1333                       # number of overall misses
system.l2.overall_misses::cpu.data               5731                       # number of overall misses
system.l2.overall_misses::total                  7064                       # number of overall misses
system.l2.ReadExReq_miss_latency::cpu.data    307731500                       # number of ReadExReq miss cycles
system.l2.ReadExReq_miss_latency::total     307731500                       # number of ReadExReq miss cycles
system.l2.ReadCleanReq_miss_latency::cpu.inst    101289000                       # number of ReadCleanReq miss cycles
system.l2.ReadCleanReq_miss_latency::total    101289000                       # number of ReadCleanReq miss cycles
system.l2.ReadSharedReq_miss_latency::cpu.data    149868500                       # number of ReadSharedReq miss cycles
system.l2.ReadSharedReq_miss_latency::total    149868500                       # number of ReadSharedReq miss cycles
system.l2.demand_miss_latency::cpu.inst     101289000                       # number of demand (read+write) miss cycles
system.l2.demand_miss_latency::cpu.data     457600000                       # number of demand (read+write) miss cycles
system.l2.demand_miss_latency::total        558889000                       # number of demand (read+write) miss cycles
system.l2.overall_miss_latency::cpu.inst    101289000                       # number of overall miss cycles
system.l2.overall_miss_latency::cpu.data    457600000                       # number of overall miss cycles
system.l2.overall_miss_latency::total       558889000                       # number of overall miss cycles
system.l2.WritebackDirty_accesses::writebacks       381293                       # number of WritebackDirty accesses(hits+misses)
system.l2.WritebackDirty_accesses::total       381293                       # number of WritebackDirty accesses(hits+misses)
system.l2.WritebackClean_accesses::writebacks          896                       # number of WritebackClean accesses(hits+misses)
system.l2.WritebackClean_accesses::total          896                       # number of WritebackClean accesses(hits+misses)
system.l2.ReadExReq_accesses::cpu.data         295608                       # number of ReadExReq accesses(hits+misses)
system.l2.ReadExReq_accesses::total            295608                       # number of ReadExReq accesses(hits+misses)
system.l2.ReadCleanReq_accesses::cpu.inst         1409                       # number of ReadCleanReq accesses(hits+misses)
system.l2.ReadCleanReq_accesses::total           1409                       # number of ReadCleanReq accesses(hits+misses)
system.l2.ReadSharedReq_accesses::cpu.data        92273                       # number of ReadSharedReq accesses(hits+misses)
system.l2.ReadSharedReq_accesses::total         92273                       # number of ReadSharedReq accesses(hits+misses)
system.l2.demand_accesses::cpu.inst              1409                       # number of demand (read+write) accesses
system.l2.demand_accesses::cpu.data            387881                       # number of demand (read+write) accesses
system.l2.demand_accesses::total               389290                       # number of demand (read+write) accesses
system.l2.overall_accesses::cpu.inst             1409                       # number of overall (read+write) accesses
system.l2.overall_accesses::cpu.data           387881                       # number of overall (read+write) accesses
system.l2.overall_accesses::total              389290                       # number of overall (read+write) accesses
system.l2.ReadExReq_miss_rate::cpu.data      0.012797                       # miss rate for ReadExReq accesses
system.l2.ReadExReq_miss_rate::total         0.012797                       # miss rate for ReadExReq accesses
system.l2.ReadCleanReq_miss_rate::cpu.inst     0.946061                       # miss rate for ReadCleanReq accesses
system.l2.ReadCleanReq_miss_rate::total      0.946061                       # miss rate for ReadCleanReq accesses
system.l2.ReadSharedReq_miss_rate::cpu.data     0.021111                       # miss rate for ReadSharedReq accesses
system.l2.ReadSharedReq_miss_rate::total     0.021111                       # miss rate for ReadSharedReq accesses
system.l2.demand_miss_rate::cpu.inst         0.946061                       # miss rate for demand accesses
system.l2.demand_miss_rate::cpu.data         0.014775                       # miss rate for demand accesses
system.l2.demand_miss_rate::total            0.018146                       # miss rate for demand accesses
system.l2.overall_miss_rate::cpu.inst        0.946061                       # miss rate for overall accesses
system.l2.overall_miss_rate::cpu.data        0.014775                       # miss rate for overall accesses
system.l2.overall_miss_rate::total           0.018146                       # miss rate for overall accesses
system.l2.ReadExReq_avg_miss_latency::cpu.data 81345.889506                       # average ReadExReq miss latency
system.l2.ReadExReq_avg_miss_latency::total 81345.889506                       # average ReadExReq miss latency
system.l2.ReadCleanReq_avg_miss_latency::cpu.inst 75985.746437                       # average ReadCleanReq miss latency
system.l2.ReadCleanReq_avg_miss_latency::total 75985.746437                       # average ReadCleanReq miss latency
system.l2.ReadSharedReq_avg_miss_latency::cpu.data 76934.548255                       # average ReadSharedReq miss latency
system.l2.ReadSharedReq_avg_miss_latency::total 76934.548255                       # average ReadSharedReq miss latency
system.l2.demand_avg_miss_latency::cpu.inst 75985.746437                       # average overall miss latency
system.l2.demand_avg_miss_latency::cpu.data 79846.449136                       # average overall miss latency
system.l2.demand_avg_miss_latency::total 79117.921857                       # average overall miss latency
system.l2.overall_avg_miss_latency::cpu.inst 75985.746437                       # average overall miss latency
system.l2.overall_avg_miss_latency::cpu.data 79846.449136                       # average overall miss latency
system.l2.overall_avg_miss_latency::total 79117.921857                       # average overall miss latency
system.l2.blocked_cycles::no_mshrs                  0                       # number of cycles access was blocked
system.l2.blocked_cycles::no_targets                0                       # number of cycles access was blocked
system.l2.blocked::no_mshrs                         0                       # number of cycles access was blocked
system.l2.blocked::no_targets                       0                       # number of cycles access was blocked
system.l2.avg_blocked_cycles::no_mshrs            nan                       # average number of cycles each access was blocked
system.l2.avg_blocked_cycles::no_targets          nan                       # average number of cycles each access was blocked
system.l2.fast_writes                               0                       # number of fast writes performed
system.l2.cache_copies                              0                       # number of cache copies performed
system.l2.writebacks::writebacks                   32                       # number of writebacks
system.l2.writebacks::total                        32                       # number of writebacks
system.l2.CleanEvict_mshr_misses::writebacks           67                       # number of CleanEvict MSHR misses
system.l2.CleanEvict_mshr_misses::total            67                       # number of CleanEvict MSHR misses
system.l2.ReadExReq_mshr_misses::cpu.data         3783                       # number of ReadExReq MSHR misses
system.l2.ReadExReq_mshr_misses::total           3783                       # number of ReadExReq MSHR misses
system.l2.ReadCleanReq_mshr_misses::cpu.inst         1333                       # number of ReadCleanReq MSHR misses
system.l2.ReadCleanReq_mshr_misses::total         1333                       # number of ReadCleanReq MSHR misses
system.l2.ReadSharedReq_mshr_misses::cpu.data         1948                       # number of ReadSharedReq MSHR misses
system.l2.ReadSharedReq_mshr_misses::total         1948                       # number of ReadSharedReq MSHR misses
system.l2.demand_mshr_misses::cpu.inst           1333                       # number of demand (read+write) MSHR misses
system.l2.demand_mshr_misses::cpu.data           5731                       # number of demand (read+write) MSHR misses
system.l2.demand_mshr_misses::total              7064                       # number of demand (read+write) MSHR misses
system.l2.overall_mshr_misses::cpu.inst          1333                       # number of overall MSHR misses
system.l2.overall_mshr_misses::cpu.data          5731                       # number of overall MSHR misses
system.l2.overall_mshr_misses::total             7064                       # number of overall MSHR misses
system.l2.ReadExReq_mshr_miss_latency::cpu.data    269901500                       # number of ReadExReq MSHR miss cycles
system.l2.ReadExReq_mshr_miss_latency::total    269901500                       # number of ReadExReq MSHR miss cycles
system.l2.ReadCleanReq_mshr_miss_latency::cpu.inst     87959000                       # number of ReadCleanReq MSHR miss cycles
system.l2.ReadCleanReq_mshr_miss_latency::total     87959000                       # number of ReadCleanReq MSHR miss cycles
system.l2.ReadSharedReq_mshr_miss_latency::cpu.data    130388500                       # number of ReadSharedReq MSHR miss cycles
system.l2.ReadSharedReq_mshr_miss_latency::total    130388500                       # number of ReadSharedReq MSHR miss cycles
system.l2.demand_mshr_miss_latency::cpu.inst     87959000                       # number of demand (read+write) MSHR miss cycles
system.l2.demand_mshr_miss_latency::cpu.data    400290000                       # number of demand (read+write) MSHR miss cycles
system.l2.demand_mshr_miss_latency::total    488249000                       # number of demand (read+write) MSHR miss cycles
system.l2.overall_mshr_miss_latency::cpu.inst     87959000                       # number of overall MSHR miss cycles
system.l2.overall_mshr_miss_latency::cpu.data    400290000                       # number of overall MSHR miss cycles
system.l2.overall_mshr_miss_latency::total    488249000                       # number of overall MSHR miss cycles
system.l2.CleanEvict_mshr_miss_rate::writebacks          inf                       # mshr miss rate for CleanEvict accesses
system.l2.CleanEvict_mshr_miss_rate::total          inf                       # mshr miss rate for CleanEvict accesses
system.l2.ReadExReq_mshr_miss_rate::cpu.data     0.012797                       # mshr miss rate for ReadExReq accesses
system.l2.ReadExReq_mshr_miss_rate::total     0.012797                       # mshr miss rate for ReadExReq accesses
system.l2.ReadCleanReq_mshr_miss_rate::cpu.inst     0.946061                       # mshr miss rate for ReadCleanReq accesses
system.l2.ReadCleanReq_mshr_miss_rate::total     0.946061                       # mshr miss rate for ReadCleanReq accesses
system.l2.ReadSharedReq_mshr_miss_rate::cpu.data     0.021111                       # mshr miss rate for ReadSharedReq accesses
system.l2.ReadSharedReq_mshr_miss_rate::total     0.021111                       # mshr miss rate for ReadSharedReq accesses
system.l2.demand_mshr_miss_rate::cpu.inst     0.946061                       # mshr miss rate for demand accesses
system.l2.demand_mshr_miss_rate::cpu.data     0.014775                       # mshr miss rate for demand accesses
system.l2.demand_mshr_miss_rate::total       0.018146                       # mshr miss rate for demand accesses
system.l2.overall_mshr_miss_rate::cpu.inst     0.946061                       # mshr miss rate for overall accesses
system.l2.overall_mshr_miss_rate::cpu.data     0.014775                       # mshr miss rate for overall accesses
system.l2.overall_mshr_miss_rate::total      0.018146                       # mshr miss rate for overall accesses
system.l2.ReadExReq_avg_mshr_miss_latency::cpu.data 71345.889506                       # average ReadExReq mshr miss latency
system.l2.ReadExReq_avg_mshr_miss_latency::total 71345.889506                       # average ReadExReq mshr miss latency
system.l2.ReadCleanReq_avg_mshr_miss_latency::cpu.inst 65985.746437                       # average ReadCleanReq mshr miss latency
system.l2.ReadCleanReq_avg_mshr_miss_latency::total 65985.746437                       # average ReadCleanReq mshr miss latency
system.l2.ReadSharedReq_avg_mshr_miss_latency::cpu.data 66934.548255                       # average ReadSharedReq mshr miss latency
system.l2.ReadSharedReq_avg_mshr_miss_latency::total 66934.548255                       # average ReadSharedReq mshr miss latency
system.l2.demand_avg_mshr_miss_latency::cpu.inst 65985.746437                       # average overall mshr miss latency
system.l2.demand_avg_mshr_miss_latency::cpu.data 69846.449136                       # average overall mshr miss latency
system.l2.demand_avg_mshr_miss_latency::total 69117.921857                       # average overall mshr miss latency
system.l2.overall_avg_mshr_miss_latency::cpu.inst 65985.746437                       # average overall mshr miss latency
system.l2.overall_avg_mshr_miss_latency::cpu.data 69846.449136                       # average overall mshr miss latency
system.l2.overall_avg_mshr_miss_latency::total 69117.921857                       # average overall mshr miss latency
system.l2.no_allocate_misses                        0                       # Number of misses that were no-allocate
system.membus.trans_dist::ReadResp               3281                       # Transaction distribution
system.membus.trans_dist::WritebackDirty           32                       # Transaction distribution
system.membus.trans_dist::CleanEvict              305                       # Transaction distribution
system.membus.trans_dist::ReadExReq              3783                       # Transaction distribution
system.membus.trans_dist::ReadExResp             3783                       # Transaction distribution
system.membus.trans_dist::ReadSharedReq          3281                       # Transaction distribution
system.membus.pkt_count_system.l2.mem_side::system.mem_ctrls.port        14465                       # Packet count per connected master and slave (bytes)
system.membus.pkt_count_system.l2.mem_side::total        14465                       # Packet count per connected master and slave (bytes)
system.membus.pkt_count::total                  14465                       # Packet count per connected master and slave (bytes)
system.membus.pkt_size_system.l2.mem_side::system.mem_ctrls.port       454144                       # Cumulative packet size per connected master and slave (bytes)
system.membus.pkt_size_system.l2.mem_side::total       454144                       # Cumulative packet size per connected master and slave (bytes)
system.membus.pkt_size::total                  454144                       # Cumulative packet size per connected master and slave (bytes)
system.membus.snoops                                0                       # Total snoops (count)
system.membus.snoop_fanout::samples              7401                       # Request fanout histogram
system.membus.snoop_fanout::mean                    0                       # Request fanout histogram
system.membus.snoop_fanout::stdev                   0                       # Request fanout histogram
system.membus.snoop_fanout::underflows              0      0.00%      0.00% # Request fanout histogram
system.membus.snoop_fanout::0                    7401    100.00%    100.00% # Request fanout histogram
system.membus.snoop_fanout::1                       0      0.00%    100.00% # Request fanout histogram
system.membus.snoop_fanout::overflows               0      0.00%    100.00% # Request fanout histogram
system.membus.snoop_fanout::min_value               0                       # Request fanout histogram
system.membus.snoop_fanout::max_value               0                       # Request fanout histogram
system.membus.snoop_fanout::total                7401                       # Request fanout histogram
system.membus.reqLayer2.occupancy             8256500                       # Layer occupancy (ticks)
system.membus.reqLayer2.utilization               0.0                       # Layer utilization (%)
system.membus.respLayer1.occupancy           37548750                       # Layer occupancy (ticks)
system.membus.respLayer1.utilization              0.0                       # Layer utilization (%)
system.tol2bus.snoop_filter.tot_requests       777044                       # Total number of requests made to the snoop filter.
system.tol2bus.snoop_filter.hit_single_requests       387754                       # Number of requests hitting in the snoop filter with a single holder of the requested data.
system.tol2bus.snoop_filter.hit_multi_requests            1                       # Number of requests hitting in the snoop filter with multiple (>1) holders of the requested data.
system.tol2bus.snoop_filter.tot_snoops            201                       # Total number of snoops made to the snoop filter.
system.tol2bus.snoop_filter.hit_single_snoops          201                       # Number of snoops hitting in the snoop filter with a single holder of the requested data.
system.tol2bus.snoop_filter.hit_multi_snoops            0                       # Number of snoops hitting in the snoop filter with multiple (>1) holders of the requested data.
system.tol2bus.trans_dist::ReadResp             93682                       # Transaction distribution
system.tol2bus.trans_dist::WritebackDirty       381325                       # Transaction distribution
system.tol2bus.trans_dist::WritebackClean          896                       # Transaction distribution
system.tol2bus.trans_dist::CleanEvict            6003                       # Transaction distribution
system.tol2bus.trans_dist::ReadExReq           295608                       # Transaction distribution
system.tol2bus.trans_dist::ReadExResp          295608                       # Transaction distribution
system.tol2bus.trans_dist::ReadCleanReq          1409                       # Transaction distribution
system.tol2bus.trans_dist::ReadSharedReq        92273                       # Transaction distribution
system.tol2bus.pkt_count_system.cpu.icache.mem_side::system.l2.cpu_side         3714                       # Packet count per connected master and slave (bytes)
system.tol2bus.pkt_count_system.cpu.dcache.mem_side::system.l2.cpu_side      1162619                       # Packet count per connected master and slave (bytes)
system.tol2bus.pkt_count::total               1166333                       # Packet count per connected master and slave (bytes)
system.tol2bus.pkt_size_system.cpu.icache.mem_side::system.l2.cpu_side       147520                       # Cumulative packet size per connected master and slave (bytes)
system.tol2bus.pkt_size_system.cpu.dcache.mem_side::system.l2.cpu_side     49227136                       # Cumulative packet size per connected master and slave (bytes)
system.tol2bus.pkt_size::total               49374656                       # Cumulative packet size per connected master and slave (bytes)
system.tol2bus.snoops                             471                       # Total snoops (count)
system.tol2bus.snoop_fanout::samples           389761                       # Request fanout histogram
system.tol2bus.snoop_fanout::mean            0.000518                       # Request fanout histogram
system.tol2bus.snoop_fanout::stdev           0.022760                       # Request fanout histogram
system.tol2bus.snoop_fanout::underflows             0      0.00%      0.00% # Request fanout histogram
system.tol2bus.snoop_fanout::0                 389559     99.95%     99.95% # Request fanout histogram
system.tol2bus.snoop_fanout::1                    202      0.05%    100.00% # Request fanout histogram
system.tol2bus.snoop_fanout::2                      0      0.00%    100.00% # Request fanout histogram
system.tol2bus.snoop_fanout::3                      0      0.00%    100.00% # Request fanout histogram
system.tol2bus.snoop_fanout::4                      0      0.00%    100.00% # Request fanout histogram
system.tol2bus.snoop_fanout::overflows              0      0.00%    100.00% # Request fanout histogram
system.tol2bus.snoop_fanout::min_value              0                       # Request fanout histogram
system.tol2bus.snoop_fanout::max_value              1                       # Request fanout histogram
system.tol2bus.snoop_fanout::total             389761                       # Request fanout histogram
system.tol2bus.reqLayer0.occupancy          770712000                       # Layer occupancy (ticks)
system.tol2bus.reqLayer0.utilization              0.1                       # Layer utilization (%)
system.tol2bus.respLayer0.occupancy           2113500                       # Layer occupancy (ticks)
system.tol2bus.respLayer0.utilization             0.0                       # Layer utilization (%)
system.tol2bus.respLayer1.occupancy         581821500                       # Layer occupancy (ticks)
system.tol2bus.respLayer1.utilization             0.1                       # Layer utilization (%)

---------- End Simulation Statistics   ----------
