
---------- Begin Simulation Statistics ----------
sim_seconds                                  0.960843                       # Number of seconds simulated
sim_ticks                                960842562500                       # Number of ticks simulated
final_tick                               960842562500                       # Number of ticks from beginning of simulation (restored from checkpoints and never reset)
sim_freq                                 1000000000000                       # Frequency of simulated ticks
host_inst_rate                                 770331                       # Simulator instruction rate (inst/s)
host_op_rate                                   993566                       # Simulator op (including micro ops) rate (op/s)
host_tick_rate                             1480332749                       # Simulator tick rate (ticks/s)
host_mem_usage                                 833552                       # Number of bytes of host memory used
host_seconds                                   649.07                       # Real time elapsed on the host
sim_insts                                   500000000                       # Number of instructions simulated
sim_ops                                     644895733                       # Number of ops (including micro ops) simulated
system.voltage_domain.voltage                       1                       # Voltage in Volts
system.clk_domain.clock                          1000                       # Clock period in ticks
system.mem_ctrls.bytes_read::cpu.inst           84544                       # Number of bytes read from this memory
system.mem_ctrls.bytes_read::cpu.data          366208                       # Number of bytes read from this memory
system.mem_ctrls.bytes_read::total             450752                       # Number of bytes read from this memory
system.mem_ctrls.bytes_inst_read::cpu.inst        84544                       # Number of instructions bytes read from this memory
system.mem_ctrls.bytes_inst_read::total         84544                       # Number of instructions bytes read from this memory
system.mem_ctrls.bytes_written::writebacks         1152                       # Number of bytes written to this memory
system.mem_ctrls.bytes_written::total            1152                       # Number of bytes written to this memory
system.mem_ctrls.num_reads::cpu.inst             1321                       # Number of read requests responded to by this memory
system.mem_ctrls.num_reads::cpu.data             5722                       # Number of read requests responded to by this memory
system.mem_ctrls.num_reads::total                7043                       # Number of read requests responded to by this memory
system.mem_ctrls.num_writes::writebacks            18                       # Number of write requests responded to by this memory
system.mem_ctrls.num_writes::total                 18                       # Number of write requests responded to by this memory
system.mem_ctrls.bw_read::cpu.inst              87989                       # Total read bandwidth from this memory (bytes/s)
system.mem_ctrls.bw_read::cpu.data             381132                       # Total read bandwidth from this memory (bytes/s)
system.mem_ctrls.bw_read::total                469122                       # Total read bandwidth from this memory (bytes/s)
system.mem_ctrls.bw_inst_read::cpu.inst         87989                       # Instruction read bandwidth from this memory (bytes/s)
system.mem_ctrls.bw_inst_read::total            87989                       # Instruction read bandwidth from this memory (bytes/s)
system.mem_ctrls.bw_write::writebacks            1199                       # Write bandwidth from this memory (bytes/s)
system.mem_ctrls.bw_write::total                 1199                       # Write bandwidth from this memory (bytes/s)
system.mem_ctrls.bw_total::writebacks            1199                       # Total bandwidth to/from this memory (bytes/s)
system.mem_ctrls.bw_total::cpu.inst             87989                       # Total bandwidth to/from this memory (bytes/s)
system.mem_ctrls.bw_total::cpu.data            381132                       # Total bandwidth to/from this memory (bytes/s)
system.mem_ctrls.bw_total::total               470321                       # Total bandwidth to/from this memory (bytes/s)
system.mem_ctrls.readReqs                        7043                       # Number of read requests accepted
system.mem_ctrls.writeReqs                         18                       # Number of write requests accepted
system.mem_ctrls.readBursts                      7043                       # Number of DRAM read bursts, including those serviced by the write queue
system.mem_ctrls.writeBursts                       18                       # Number of DRAM write bursts, including those merged in the write queue
system.mem_ctrls.bytesReadDRAM                 450240                       # Total number of bytes read from DRAM
system.mem_ctrls.bytesReadWrQ                     512                       # Total number of bytes read from write queue
system.mem_ctrls.bytesWritten                       0                       # Total number of bytes written to DRAM
system.mem_ctrls.bytesReadSys                  450752                       # Total read bytes from the system interface side
system.mem_ctrls.bytesWrittenSys                 1152                       # Total written bytes from the system interface side
system.mem_ctrls.servicedByWrQ                      8                       # Number of DRAM read bursts serviced by the write queue
system.mem_ctrls.mergedWrBursts                     0                       # Number of DRAM write bursts merged with an existing one
system.mem_ctrls.neitherReadNorWriteReqs           64                       # Number of requests that are neither read nor write
system.mem_ctrls.perBankRdBursts::0               315                       # Per bank write bursts
system.mem_ctrls.perBankRdBursts::1               346                       # Per bank write bursts
system.mem_ctrls.perBankRdBursts::2               432                       # Per bank write bursts
system.mem_ctrls.perBankRdBursts::3               318                       # Per bank write bursts
system.mem_ctrls.perBankRdBursts::4               471                       # Per bank write bursts
system.mem_ctrls.perBankRdBursts::5               410                       # Per bank write bursts
system.mem_ctrls.perBankRdBursts::6               341                       # Per bank write bursts
system.mem_ctrls.perBankRdBursts::7               412                       # Per bank write bursts
system.mem_ctrls.perBankRdBursts::8               509                       # Per bank write bursts
system.mem_ctrls.perBankRdBursts::9               514                       # Per bank write bursts
system.mem_ctrls.perBankRdBursts::10              555                       # Per bank write bursts
system.mem_ctrls.perBankRdBursts::11              591                       # Per bank write bursts
system.mem_ctrls.perBankRdBursts::12              493                       # Per bank write bursts
system.mem_ctrls.perBankRdBursts::13              448                       # Per bank write bursts
system.mem_ctrls.perBankRdBursts::14              431                       # Per bank write bursts
system.mem_ctrls.perBankRdBursts::15              449                       # Per bank write bursts
system.mem_ctrls.perBankWrBursts::0                 0                       # Per bank write bursts
system.mem_ctrls.perBankWrBursts::1                 0                       # Per bank write bursts
system.mem_ctrls.perBankWrBursts::2                 0                       # Per bank write bursts
system.mem_ctrls.perBankWrBursts::3                 0                       # Per bank write bursts
system.mem_ctrls.perBankWrBursts::4                 0                       # Per bank write bursts
system.mem_ctrls.perBankWrBursts::5                 0                       # Per bank write bursts
system.mem_ctrls.perBankWrBursts::6                 0                       # Per bank write bursts
system.mem_ctrls.perBankWrBursts::7                 0                       # Per bank write bursts
system.mem_ctrls.perBankWrBursts::8                 0                       # Per bank write bursts
system.mem_ctrls.perBankWrBursts::9                 0                       # Per bank write bursts
system.mem_ctrls.perBankWrBursts::10                0                       # Per bank write bursts
system.mem_ctrls.perBankWrBursts::11                0                       # Per bank write bursts
system.mem_ctrls.perBankWrBursts::12                0                       # Per bank write bursts
system.mem_ctrls.perBankWrBursts::13                0                       # Per bank write bursts
system.mem_ctrls.perBankWrBursts::14                0                       # Per bank write bursts
system.mem_ctrls.perBankWrBursts::15                0                       # Per bank write bursts
system.mem_ctrls.numRdRetry                         0                       # Number of times read queue was full causing retry
system.mem_ctrls.numWrRetry                         0                       # Number of times write queue was full causing retry
system.mem_ctrls.totGap                  341754693500                       # Total gap between requests
system.mem_ctrls.readPktSize::0                     0                       # Read request sizes (log2)
system.mem_ctrls.readPktSize::1                     0                       # Read request sizes (log2)
system.mem_ctrls.readPktSize::2                     0                       # Read request sizes (log2)
system.mem_ctrls.readPktSize::3                     0                       # Read request sizes (log2)
system.mem_ctrls.readPktSize::4                     0                       # Read request sizes (log2)
system.mem_ctrls.readPktSize::5                     0                       # Read request sizes (log2)
system.mem_ctrls.readPktSize::6                  7043                       # Read request sizes (log2)
system.mem_ctrls.writePktSize::0                    0                       # Write request sizes (log2)
system.mem_ctrls.writePktSize::1                    0                       # Write request sizes (log2)
system.mem_ctrls.writePktSize::2                    0                       # Write request sizes (log2)
system.mem_ctrls.writePktSize::3                    0                       # Write request sizes (log2)
system.mem_ctrls.writePktSize::4                    0                       # Write request sizes (log2)
system.mem_ctrls.writePktSize::5                    0                       # Write request sizes (log2)
system.mem_ctrls.writePktSize::6                   18                       # Write request sizes (log2)
system.mem_ctrls.rdQLenPdf::0                    6355                       # What read queue length does an incoming req see
system.mem_ctrls.rdQLenPdf::1                     635                       # What read queue length does an incoming req see
system.mem_ctrls.rdQLenPdf::2                      38                       # What read queue length does an incoming req see
system.mem_ctrls.rdQLenPdf::3                       7                       # What read queue length does an incoming req see
system.mem_ctrls.rdQLenPdf::4                       0                       # What read queue length does an incoming req see
system.mem_ctrls.rdQLenPdf::5                       0                       # What read queue length does an incoming req see
system.mem_ctrls.rdQLenPdf::6                       0                       # What read queue length does an incoming req see
system.mem_ctrls.rdQLenPdf::7                       0                       # What read queue length does an incoming req see
system.mem_ctrls.rdQLenPdf::8                       0                       # What read queue length does an incoming req see
system.mem_ctrls.rdQLenPdf::9                       0                       # What read queue length does an incoming req see
system.mem_ctrls.rdQLenPdf::10                      0                       # What read queue length does an incoming req see
system.mem_ctrls.rdQLenPdf::11                      0                       # What read queue length does an incoming req see
system.mem_ctrls.rdQLenPdf::12                      0                       # What read queue length does an incoming req see
system.mem_ctrls.rdQLenPdf::13                      0                       # What read queue length does an incoming req see
system.mem_ctrls.rdQLenPdf::14                      0                       # What read queue length does an incoming req see
system.mem_ctrls.rdQLenPdf::15                      0                       # What read queue length does an incoming req see
system.mem_ctrls.rdQLenPdf::16                      0                       # What read queue length does an incoming req see
system.mem_ctrls.rdQLenPdf::17                      0                       # What read queue length does an incoming req see
system.mem_ctrls.rdQLenPdf::18                      0                       # What read queue length does an incoming req see
system.mem_ctrls.rdQLenPdf::19                      0                       # What read queue length does an incoming req see
system.mem_ctrls.rdQLenPdf::20                      0                       # What read queue length does an incoming req see
system.mem_ctrls.rdQLenPdf::21                      0                       # What read queue length does an incoming req see
system.mem_ctrls.rdQLenPdf::22                      0                       # What read queue length does an incoming req see
system.mem_ctrls.rdQLenPdf::23                      0                       # What read queue length does an incoming req see
system.mem_ctrls.rdQLenPdf::24                      0                       # What read queue length does an incoming req see
system.mem_ctrls.rdQLenPdf::25                      0                       # What read queue length does an incoming req see
system.mem_ctrls.rdQLenPdf::26                      0                       # What read queue length does an incoming req see
system.mem_ctrls.rdQLenPdf::27                      0                       # What read queue length does an incoming req see
system.mem_ctrls.rdQLenPdf::28                      0                       # What read queue length does an incoming req see
system.mem_ctrls.rdQLenPdf::29                      0                       # What read queue length does an incoming req see
system.mem_ctrls.rdQLenPdf::30                      0                       # What read queue length does an incoming req see
system.mem_ctrls.rdQLenPdf::31                      0                       # What read queue length does an incoming req see
system.mem_ctrls.wrQLenPdf::0                       1                       # What write queue length does an incoming req see
system.mem_ctrls.wrQLenPdf::1                       1                       # What write queue length does an incoming req see
system.mem_ctrls.wrQLenPdf::2                       1                       # What write queue length does an incoming req see
system.mem_ctrls.wrQLenPdf::3                       1                       # What write queue length does an incoming req see
system.mem_ctrls.wrQLenPdf::4                       1                       # What write queue length does an incoming req see
system.mem_ctrls.wrQLenPdf::5                       1                       # What write queue length does an incoming req see
system.mem_ctrls.wrQLenPdf::6                       1                       # What write queue length does an incoming req see
system.mem_ctrls.wrQLenPdf::7                       1                       # What write queue length does an incoming req see
system.mem_ctrls.wrQLenPdf::8                       1                       # What write queue length does an incoming req see
system.mem_ctrls.wrQLenPdf::9                       1                       # What write queue length does an incoming req see
system.mem_ctrls.wrQLenPdf::10                      1                       # What write queue length does an incoming req see
system.mem_ctrls.wrQLenPdf::11                      1                       # What write queue length does an incoming req see
system.mem_ctrls.wrQLenPdf::12                      1                       # What write queue length does an incoming req see
system.mem_ctrls.wrQLenPdf::13                      1                       # What write queue length does an incoming req see
system.mem_ctrls.wrQLenPdf::14                      1                       # What write queue length does an incoming req see
system.mem_ctrls.wrQLenPdf::15                      1                       # What write queue length does an incoming req see
system.mem_ctrls.wrQLenPdf::16                      1                       # What write queue length does an incoming req see
system.mem_ctrls.wrQLenPdf::17                      1                       # What write queue length does an incoming req see
system.mem_ctrls.wrQLenPdf::18                      0                       # What write queue length does an incoming req see
system.mem_ctrls.wrQLenPdf::19                      0                       # What write queue length does an incoming req see
system.mem_ctrls.wrQLenPdf::20                      0                       # What write queue length does an incoming req see
system.mem_ctrls.wrQLenPdf::21                      0                       # What write queue length does an incoming req see
system.mem_ctrls.wrQLenPdf::22                      0                       # What write queue length does an incoming req see
system.mem_ctrls.wrQLenPdf::23                      0                       # What write queue length does an incoming req see
system.mem_ctrls.wrQLenPdf::24                      0                       # What write queue length does an incoming req see
system.mem_ctrls.wrQLenPdf::25                      0                       # What write queue length does an incoming req see
system.mem_ctrls.wrQLenPdf::26                      0                       # What write queue length does an incoming req see
system.mem_ctrls.wrQLenPdf::27                      0                       # What write queue length does an incoming req see
system.mem_ctrls.wrQLenPdf::28                      0                       # What write queue length does an incoming req see
system.mem_ctrls.wrQLenPdf::29                      0                       # What write queue length does an incoming req see
system.mem_ctrls.wrQLenPdf::30                      0                       # What write queue length does an incoming req see
system.mem_ctrls.wrQLenPdf::31                      0                       # What write queue length does an incoming req see
system.mem_ctrls.wrQLenPdf::32                      0                       # What write queue length does an incoming req see
system.mem_ctrls.wrQLenPdf::33                      0                       # What write queue length does an incoming req see
system.mem_ctrls.wrQLenPdf::34                      0                       # What write queue length does an incoming req see
system.mem_ctrls.wrQLenPdf::35                      0                       # What write queue length does an incoming req see
system.mem_ctrls.wrQLenPdf::36                      0                       # What write queue length does an incoming req see
system.mem_ctrls.wrQLenPdf::37                      0                       # What write queue length does an incoming req see
system.mem_ctrls.wrQLenPdf::38                      0                       # What write queue length does an incoming req see
system.mem_ctrls.wrQLenPdf::39                      0                       # What write queue length does an incoming req see
system.mem_ctrls.wrQLenPdf::40                      0                       # What write queue length does an incoming req see
system.mem_ctrls.wrQLenPdf::41                      0                       # What write queue length does an incoming req see
system.mem_ctrls.wrQLenPdf::42                      0                       # What write queue length does an incoming req see
system.mem_ctrls.wrQLenPdf::43                      0                       # What write queue length does an incoming req see
system.mem_ctrls.wrQLenPdf::44                      0                       # What write queue length does an incoming req see
system.mem_ctrls.wrQLenPdf::45                      0                       # What write queue length does an incoming req see
system.mem_ctrls.wrQLenPdf::46                      0                       # What write queue length does an incoming req see
system.mem_ctrls.wrQLenPdf::47                      0                       # What write queue length does an incoming req see
system.mem_ctrls.wrQLenPdf::48                      0                       # What write queue length does an incoming req see
system.mem_ctrls.wrQLenPdf::49                      0                       # What write queue length does an incoming req see
system.mem_ctrls.wrQLenPdf::50                      0                       # What write queue length does an incoming req see
system.mem_ctrls.wrQLenPdf::51                      0                       # What write queue length does an incoming req see
system.mem_ctrls.wrQLenPdf::52                      0                       # What write queue length does an incoming req see
system.mem_ctrls.wrQLenPdf::53                      0                       # What write queue length does an incoming req see
system.mem_ctrls.wrQLenPdf::54                      0                       # What write queue length does an incoming req see
system.mem_ctrls.wrQLenPdf::55                      0                       # What write queue length does an incoming req see
system.mem_ctrls.wrQLenPdf::56                      0                       # What write queue length does an incoming req see
system.mem_ctrls.wrQLenPdf::57                      0                       # What write queue length does an incoming req see
system.mem_ctrls.wrQLenPdf::58                      0                       # What write queue length does an incoming req see
system.mem_ctrls.wrQLenPdf::59                      0                       # What write queue length does an incoming req see
system.mem_ctrls.wrQLenPdf::60                      0                       # What write queue length does an incoming req see
system.mem_ctrls.wrQLenPdf::61                      0                       # What write queue length does an incoming req see
system.mem_ctrls.wrQLenPdf::62                      0                       # What write queue length does an incoming req see
system.mem_ctrls.wrQLenPdf::63                      0                       # What write queue length does an incoming req see
system.mem_ctrls.bytesPerActivate::samples         2466                       # Bytes accessed per row activation
system.mem_ctrls.bytesPerActivate::mean    182.579075                       # Bytes accessed per row activation
system.mem_ctrls.bytesPerActivate::gmean   102.598802                       # Bytes accessed per row activation
system.mem_ctrls.bytesPerActivate::stdev   272.797599                       # Bytes accessed per row activation
system.mem_ctrls.bytesPerActivate::0-127         1800     72.99%     72.99% # Bytes accessed per row activation
system.mem_ctrls.bytesPerActivate::128-255          244      9.89%     82.89% # Bytes accessed per row activation
system.mem_ctrls.bytesPerActivate::256-383           91      3.69%     86.58% # Bytes accessed per row activation
system.mem_ctrls.bytesPerActivate::384-511           60      2.43%     89.01% # Bytes accessed per row activation
system.mem_ctrls.bytesPerActivate::512-639           27      1.09%     90.11% # Bytes accessed per row activation
system.mem_ctrls.bytesPerActivate::640-767           17      0.69%     90.79% # Bytes accessed per row activation
system.mem_ctrls.bytesPerActivate::768-895           36      1.46%     92.25% # Bytes accessed per row activation
system.mem_ctrls.bytesPerActivate::896-1023           15      0.61%     92.86% # Bytes accessed per row activation
system.mem_ctrls.bytesPerActivate::1024-1151          176      7.14%    100.00% # Bytes accessed per row activation
system.mem_ctrls.bytesPerActivate::total         2466                       # Bytes accessed per row activation
system.mem_ctrls.totQLat                     70380750                       # Total ticks spent queuing
system.mem_ctrls.totMemAccLat               202287000                       # Total ticks spent from burst creation until serviced by the DRAM
system.mem_ctrls.totBusLat                   35175000                       # Total ticks spent in databus transfers
system.mem_ctrls.avgQLat                     10004.37                       # Average queueing delay per DRAM burst
system.mem_ctrls.avgBusLat                    5000.00                       # Average bus latency per DRAM burst
system.mem_ctrls.avgMemAccLat                28754.37                       # Average memory access latency per DRAM burst
system.mem_ctrls.avgRdBW                         0.47                       # Average DRAM read bandwidth in MiByte/s
system.mem_ctrls.avgWrBW                         0.00                       # Average achieved write bandwidth in MiByte/s
system.mem_ctrls.avgRdBWSys                      0.47                       # Average system read bandwidth in MiByte/s
system.mem_ctrls.avgWrBWSys                      0.00                       # Average system write bandwidth in MiByte/s
system.mem_ctrls.peakBW                      12800.00                       # Theoretical peak bandwidth in MiByte/s
system.mem_ctrls.busUtil                         0.00                       # Data bus utilization in percentage
system.mem_ctrls.busUtilRead                     0.00                       # Data bus utilization in percentage for reads
system.mem_ctrls.busUtilWrite                    0.00                       # Data bus utilization in percentage for writes
system.mem_ctrls.avgRdQLen                       1.01                       # Average read queue length when enqueuing
system.mem_ctrls.avgWrQLen                      17.04                       # Average write queue length when enqueuing
system.mem_ctrls.readRowHits                     4569                       # Number of row buffer hits during reads
system.mem_ctrls.writeRowHits                       0                       # Number of row buffer hits during writes
system.mem_ctrls.readRowHitRate                 64.95                       # Row buffer hit rate for reads
system.mem_ctrls.writeRowHitRate                 0.00                       # Row buffer hit rate for writes
system.mem_ctrls.avgGap                   48400324.81                       # Average gap between requests
system.mem_ctrls.pageHitRate                    64.78                       # Row buffer hit rate, read and write combined
system.mem_ctrls_0.actEnergy                  8746920                       # Energy for activate commands per rank (pJ)
system.mem_ctrls_0.preEnergy                  4772625                       # Energy for precharge commands per rank (pJ)
system.mem_ctrls_0.readEnergy                23751000                       # Energy for read commands per rank (pJ)
system.mem_ctrls_0.writeEnergy                      0                       # Energy for write commands per rank (pJ)
system.mem_ctrls_0.refreshEnergy          62757321120                       # Energy for refresh commands per rank (pJ)
system.mem_ctrls_0.actBackEnergy          23187220380                       # Energy for active background per rank (pJ)
system.mem_ctrls_0.preBackEnergy         556163774250                       # Energy for precharge background per rank (pJ)
system.mem_ctrls_0.totalEnergy           642145586295                       # Total energy per rank (pJ)
system.mem_ctrls_0.averagePower            668.317523                       # Core power per rank (mW)
system.mem_ctrls_0.memoryStateTime::IDLE 925233229250                       # Time in different power states
system.mem_ctrls_0.memoryStateTime::REF   32084520000                       # Time in different power states
system.mem_ctrls_0.memoryStateTime::PRE_PDN            0                       # Time in different power states
system.mem_ctrls_0.memoryStateTime::ACT    3521333250                       # Time in different power states
system.mem_ctrls_0.memoryStateTime::ACT_PDN            0                       # Time in different power states
system.mem_ctrls_1.actEnergy                  9896040                       # Energy for activate commands per rank (pJ)
system.mem_ctrls_1.preEnergy                  5399625                       # Energy for precharge commands per rank (pJ)
system.mem_ctrls_1.readEnergy                31122000                       # Energy for read commands per rank (pJ)
system.mem_ctrls_1.writeEnergy                      0                       # Energy for write commands per rank (pJ)
system.mem_ctrls_1.refreshEnergy          62757321120                       # Energy for refresh commands per rank (pJ)
system.mem_ctrls_1.actBackEnergy          23189123610                       # Energy for active background per rank (pJ)
system.mem_ctrls_1.preBackEnergy         556162104750                       # Energy for precharge background per rank (pJ)
system.mem_ctrls_1.totalEnergy           642154967145                       # Total energy per rank (pJ)
system.mem_ctrls_1.averagePower            668.327286                       # Core power per rank (mW)
system.mem_ctrls_1.memoryStateTime::IDLE 925229973000                       # Time in different power states
system.mem_ctrls_1.memoryStateTime::REF   32084520000                       # Time in different power states
system.mem_ctrls_1.memoryStateTime::PRE_PDN            0                       # Time in different power states
system.mem_ctrls_1.memoryStateTime::ACT    3524589500                       # Time in different power states
system.mem_ctrls_1.memoryStateTime::ACT_PDN            0                       # Time in different power states
system.cpu_voltage_domain.voltage                   1                       # Voltage in Volts
system.cpu_clk_domain.clock                       500                       # Clock period in ticks
system.cpu.apic_clk_domain.clock                 8000                       # Clock period in ticks
system.cpu.workload.num_syscalls                   35                       # Number of system calls
system.cpu.numCycles                       1921685125                       # number of cpu cycles simulated
system.cpu.numWorkItemsStarted                      0                       # number of work items this cpu started
system.cpu.numWorkItemsCompleted                    0                       # number of work items this cpu completed
system.cpu.committedInsts                   500000000                       # Number of instructions committed
system.cpu.committedOps                     644895733                       # Number of ops (including micro ops) committed
system.cpu.num_int_alu_accesses             625873233                       # Number of integer alu accesses
system.cpu.num_fp_alu_accesses               27676254                       # Number of float alu accesses
system.cpu.num_func_calls                     1531165                       # number of times a function call or return occured
system.cpu.num_conditional_control_insts     25302281                       # number of instructions that are conditional controls
system.cpu.num_int_insts                    625873233                       # number of integer instructions
system.cpu.num_fp_insts                      27676254                       # number of float instructions
system.cpu.num_int_register_reads          1467548657                       # number of times the integer registers were read
system.cpu.num_int_register_writes          569494356                       # number of times the integer registers were written
system.cpu.num_fp_register_reads             21879879                       # number of times the floating registers were read
system.cpu.num_fp_register_writes            23672685                       # number of times the floating registers were written
system.cpu.num_cc_register_reads            187332012                       # number of times the CC registers were read
system.cpu.num_cc_register_writes           260734382                       # number of times the CC registers were written
system.cpu.num_mem_refs                     254894307                       # number of memory refs
system.cpu.num_load_insts                   219204129                       # Number of load instructions
system.cpu.num_store_insts                   35690178                       # Number of store instructions
system.cpu.num_idle_cycles                          0                       # Number of idle cycles
system.cpu.num_busy_cycles                 1921685125                       # Number of busy cycles
system.cpu.not_idle_fraction                        1                       # Percentage of non-idle cycles
system.cpu.idle_fraction                            0                       # Percentage of idle cycles
system.cpu.Branches                          27605108                       # Number of branches fetched
system.cpu.op_class::No_OpClass               1502715      0.23%      0.23% # Class of executed instruction
system.cpu.op_class::IntAlu                 363720567     56.40%     56.63% # Class of executed instruction
system.cpu.op_class::IntMult                   618823      0.10%     56.73% # Class of executed instruction
system.cpu.op_class::IntDiv                   6323450      0.98%     57.71% # Class of executed instruction
system.cpu.op_class::FloatAdd                17835871      2.77%     60.48% # Class of executed instruction
system.cpu.op_class::FloatCmp                       0      0.00%     60.48% # Class of executed instruction
system.cpu.op_class::FloatCvt                       0      0.00%     60.48% # Class of executed instruction
system.cpu.op_class::FloatMult                      0      0.00%     60.48% # Class of executed instruction
system.cpu.op_class::FloatDiv                       0      0.00%     60.48% # Class of executed instruction
system.cpu.op_class::FloatSqrt                      0      0.00%     60.48% # Class of executed instruction
system.cpu.op_class::SimdAdd                        0      0.00%     60.48% # Class of executed instruction
system.cpu.op_class::SimdAddAcc                     0      0.00%     60.48% # Class of executed instruction
system.cpu.op_class::SimdAlu                        0      0.00%     60.48% # Class of executed instruction
system.cpu.op_class::SimdCmp                        0      0.00%     60.48% # Class of executed instruction
system.cpu.op_class::SimdCvt                        0      0.00%     60.48% # Class of executed instruction
system.cpu.op_class::SimdMisc                       0      0.00%     60.48% # Class of executed instruction
system.cpu.op_class::SimdMult                       0      0.00%     60.48% # Class of executed instruction
system.cpu.op_class::SimdMultAcc                    0      0.00%     60.48% # Class of executed instruction
system.cpu.op_class::SimdShift                      0      0.00%     60.48% # Class of executed instruction
system.cpu.op_class::SimdShiftAcc                   0      0.00%     60.48% # Class of executed instruction
system.cpu.op_class::SimdSqrt                       0      0.00%     60.48% # Class of executed instruction
system.cpu.op_class::SimdFloatAdd                   0      0.00%     60.48% # Class of executed instruction
system.cpu.op_class::SimdFloatAlu                   0      0.00%     60.48% # Class of executed instruction
system.cpu.op_class::SimdFloatCmp                   0      0.00%     60.48% # Class of executed instruction
system.cpu.op_class::SimdFloatCvt                   0      0.00%     60.48% # Class of executed instruction
system.cpu.op_class::SimdFloatDiv                   0      0.00%     60.48% # Class of executed instruction
system.cpu.op_class::SimdFloatMisc                  0      0.00%     60.48% # Class of executed instruction
system.cpu.op_class::SimdFloatMult                  0      0.00%     60.48% # Class of executed instruction
system.cpu.op_class::SimdFloatMultAcc               0      0.00%     60.48% # Class of executed instruction
system.cpu.op_class::SimdFloatSqrt                  0      0.00%     60.48% # Class of executed instruction
system.cpu.op_class::MemRead                219204129     33.99%     94.47% # Class of executed instruction
system.cpu.op_class::MemWrite                35690178      5.53%    100.00% # Class of executed instruction
system.cpu.op_class::IprAccess                      0      0.00%    100.00% # Class of executed instruction
system.cpu.op_class::InstPrefetch                   0      0.00%    100.00% # Class of executed instruction
system.cpu.op_class::total                  644895733                       # Class of executed instruction
system.cpu.dcache.tags.replacements            800277                       # number of replacements
system.cpu.dcache.tags.tagsinuse          1022.753515                       # Cycle average of tags in use
system.cpu.dcache.tags.total_refs           254093550                       # Total number of references to valid blocks.
system.cpu.dcache.tags.sampled_refs            801301                       # Sample count of references to valid blocks.
system.cpu.dcache.tags.avg_refs            317.101252                       # Average number of references to valid blocks.
system.cpu.dcache.tags.warmup_cycle        8237714500                       # Cycle when the warmup percentage was hit.
system.cpu.dcache.tags.occ_blocks::cpu.data  1022.753515                       # Average occupied blocks per requestor
system.cpu.dcache.tags.occ_percent::cpu.data     0.998783                       # Average percentage of cache occupancy
system.cpu.dcache.tags.occ_percent::total     0.998783                       # Average percentage of cache occupancy
system.cpu.dcache.tags.occ_task_id_blocks::1024         1024                       # Occupied blocks per task id
system.cpu.dcache.tags.age_task_id_blocks_1024::0            3                       # Occupied blocks per task id
system.cpu.dcache.tags.age_task_id_blocks_1024::1           35                       # Occupied blocks per task id
system.cpu.dcache.tags.age_task_id_blocks_1024::2          233                       # Occupied blocks per task id
system.cpu.dcache.tags.age_task_id_blocks_1024::3          410                       # Occupied blocks per task id
system.cpu.dcache.tags.age_task_id_blocks_1024::4          343                       # Occupied blocks per task id
system.cpu.dcache.tags.occ_task_id_percent::1024            1                       # Percentage of cache occupancy per task id
system.cpu.dcache.tags.tag_accesses         255696152                       # Number of tag accesses
system.cpu.dcache.tags.data_accesses        255696152                       # Number of data accesses
system.cpu.dcache.ReadReq_hits::cpu.data    218748486                       # number of ReadReq hits
system.cpu.dcache.ReadReq_hits::total       218748486                       # number of ReadReq hits
system.cpu.dcache.WriteReq_hits::cpu.data     35344267                       # number of WriteReq hits
system.cpu.dcache.WriteReq_hits::total       35344267                       # number of WriteReq hits
system.cpu.dcache.SoftPFReq_hits::cpu.data          797                       # number of SoftPFReq hits
system.cpu.dcache.SoftPFReq_hits::total           797                       # number of SoftPFReq hits
system.cpu.dcache.demand_hits::cpu.data     254092753                       # number of demand (read+write) hits
system.cpu.dcache.demand_hits::total        254092753                       # number of demand (read+write) hits
system.cpu.dcache.overall_hits::cpu.data    254093550                       # number of overall hits
system.cpu.dcache.overall_hits::total       254093550                       # number of overall hits
system.cpu.dcache.ReadReq_misses::cpu.data       450024                       # number of ReadReq misses
system.cpu.dcache.ReadReq_misses::total        450024                       # number of ReadReq misses
system.cpu.dcache.WriteReq_misses::cpu.data       345956                       # number of WriteReq misses
system.cpu.dcache.WriteReq_misses::total       345956                       # number of WriteReq misses
system.cpu.dcache.SoftPFReq_misses::cpu.data         5321                       # number of SoftPFReq misses
system.cpu.dcache.SoftPFReq_misses::total         5321                       # number of SoftPFReq misses
system.cpu.dcache.demand_misses::cpu.data       795980                       # number of demand (read+write) misses
system.cpu.dcache.demand_misses::total         795980                       # number of demand (read+write) misses
system.cpu.dcache.overall_misses::cpu.data       801301                       # number of overall misses
system.cpu.dcache.overall_misses::total        801301                       # number of overall misses
system.cpu.dcache.ReadReq_miss_latency::cpu.data   5894330000                       # number of ReadReq miss cycles
system.cpu.dcache.ReadReq_miss_latency::total   5894330000                       # number of ReadReq miss cycles
system.cpu.dcache.WriteReq_miss_latency::cpu.data   4762639500                       # number of WriteReq miss cycles
system.cpu.dcache.WriteReq_miss_latency::total   4762639500                       # number of WriteReq miss cycles
system.cpu.dcache.demand_miss_latency::cpu.data  10656969500                       # number of demand (read+write) miss cycles
system.cpu.dcache.demand_miss_latency::total  10656969500                       # number of demand (read+write) miss cycles
system.cpu.dcache.overall_miss_latency::cpu.data  10656969500                       # number of overall miss cycles
system.cpu.dcache.overall_miss_latency::total  10656969500                       # number of overall miss cycles
system.cpu.dcache.ReadReq_accesses::cpu.data    219198510                       # number of ReadReq accesses(hits+misses)
system.cpu.dcache.ReadReq_accesses::total    219198510                       # number of ReadReq accesses(hits+misses)
system.cpu.dcache.WriteReq_accesses::cpu.data     35690223                       # number of WriteReq accesses(hits+misses)
system.cpu.dcache.WriteReq_accesses::total     35690223                       # number of WriteReq accesses(hits+misses)
system.cpu.dcache.SoftPFReq_accesses::cpu.data         6118                       # number of SoftPFReq accesses(hits+misses)
system.cpu.dcache.SoftPFReq_accesses::total         6118                       # number of SoftPFReq accesses(hits+misses)
system.cpu.dcache.demand_accesses::cpu.data    254888733                       # number of demand (read+write) accesses
system.cpu.dcache.demand_accesses::total    254888733                       # number of demand (read+write) accesses
system.cpu.dcache.overall_accesses::cpu.data    254894851                       # number of overall (read+write) accesses
system.cpu.dcache.overall_accesses::total    254894851                       # number of overall (read+write) accesses
system.cpu.dcache.ReadReq_miss_rate::cpu.data     0.002053                       # miss rate for ReadReq accesses
system.cpu.dcache.ReadReq_miss_rate::total     0.002053                       # miss rate for ReadReq accesses
system.cpu.dcache.WriteReq_miss_rate::cpu.data     0.009693                       # miss rate for WriteReq accesses
system.cpu.dcache.WriteReq_miss_rate::total     0.009693                       # miss rate for WriteReq accesses
system.cpu.dcache.SoftPFReq_miss_rate::cpu.data     0.869729                       # miss rate for SoftPFReq accesses
system.cpu.dcache.SoftPFReq_miss_rate::total     0.869729                       # miss rate for SoftPFReq accesses
system.cpu.dcache.demand_miss_rate::cpu.data     0.003123                       # miss rate for demand accesses
system.cpu.dcache.demand_miss_rate::total     0.003123                       # miss rate for demand accesses
system.cpu.dcache.overall_miss_rate::cpu.data     0.003144                       # miss rate for overall accesses
system.cpu.dcache.overall_miss_rate::total     0.003144                       # miss rate for overall accesses
system.cpu.dcache.ReadReq_avg_miss_latency::cpu.data 13097.812561                       # average ReadReq miss latency
system.cpu.dcache.ReadReq_avg_miss_latency::total 13097.812561                       # average ReadReq miss latency
system.cpu.dcache.WriteReq_avg_miss_latency::cpu.data 13766.604713                       # average WriteReq miss latency
system.cpu.dcache.WriteReq_avg_miss_latency::total 13766.604713                       # average WriteReq miss latency
system.cpu.dcache.demand_avg_miss_latency::cpu.data 13388.489032                       # average overall miss latency
system.cpu.dcache.demand_avg_miss_latency::total 13388.489032                       # average overall miss latency
system.cpu.dcache.overall_avg_miss_latency::cpu.data 13299.583427                       # average overall miss latency
system.cpu.dcache.overall_avg_miss_latency::total 13299.583427                       # average overall miss latency
system.cpu.dcache.blocked_cycles::no_mshrs        13590                       # number of cycles access was blocked
system.cpu.dcache.blocked_cycles::no_targets            0                       # number of cycles access was blocked
system.cpu.dcache.blocked::no_mshrs               528                       # number of cycles access was blocked
system.cpu.dcache.blocked::no_targets               0                       # number of cycles access was blocked
system.cpu.dcache.avg_blocked_cycles::no_mshrs    25.738636                       # average number of cycles each access was blocked
system.cpu.dcache.avg_blocked_cycles::no_targets          nan                       # average number of cycles each access was blocked
system.cpu.dcache.fast_writes                       0                       # number of fast writes performed
system.cpu.dcache.cache_copies                      0                       # number of cache copies performed
system.cpu.dcache.writebacks::writebacks       794552                       # number of writebacks
system.cpu.dcache.writebacks::total            794552                       # number of writebacks
system.cpu.dcache.ReadReq_mshr_misses::cpu.data       450024                       # number of ReadReq MSHR misses
system.cpu.dcache.ReadReq_mshr_misses::total       450024                       # number of ReadReq MSHR misses
system.cpu.dcache.WriteReq_mshr_misses::cpu.data       345956                       # number of WriteReq MSHR misses
system.cpu.dcache.WriteReq_mshr_misses::total       345956                       # number of WriteReq MSHR misses
system.cpu.dcache.SoftPFReq_mshr_misses::cpu.data         5321                       # number of SoftPFReq MSHR misses
system.cpu.dcache.SoftPFReq_mshr_misses::total         5321                       # number of SoftPFReq MSHR misses
system.cpu.dcache.demand_mshr_misses::cpu.data       795980                       # number of demand (read+write) MSHR misses
system.cpu.dcache.demand_mshr_misses::total       795980                       # number of demand (read+write) MSHR misses
system.cpu.dcache.overall_mshr_misses::cpu.data       801301                       # number of overall MSHR misses
system.cpu.dcache.overall_mshr_misses::total       801301                       # number of overall MSHR misses
system.cpu.dcache.ReadReq_mshr_miss_latency::cpu.data   5444306000                       # number of ReadReq MSHR miss cycles
system.cpu.dcache.ReadReq_mshr_miss_latency::total   5444306000                       # number of ReadReq MSHR miss cycles
system.cpu.dcache.WriteReq_mshr_miss_latency::cpu.data   4416683500                       # number of WriteReq MSHR miss cycles
system.cpu.dcache.WriteReq_mshr_miss_latency::total   4416683500                       # number of WriteReq MSHR miss cycles
system.cpu.dcache.SoftPFReq_mshr_miss_latency::cpu.data    148142000                       # number of SoftPFReq MSHR miss cycles
system.cpu.dcache.SoftPFReq_mshr_miss_latency::total    148142000                       # number of SoftPFReq MSHR miss cycles
system.cpu.dcache.demand_mshr_miss_latency::cpu.data   9860989500                       # number of demand (read+write) MSHR miss cycles
system.cpu.dcache.demand_mshr_miss_latency::total   9860989500                       # number of demand (read+write) MSHR miss cycles
system.cpu.dcache.overall_mshr_miss_latency::cpu.data  10009131500                       # number of overall MSHR miss cycles
system.cpu.dcache.overall_mshr_miss_latency::total  10009131500                       # number of overall MSHR miss cycles
system.cpu.dcache.ReadReq_mshr_miss_rate::cpu.data     0.002053                       # mshr miss rate for ReadReq accesses
system.cpu.dcache.ReadReq_mshr_miss_rate::total     0.002053                       # mshr miss rate for ReadReq accesses
system.cpu.dcache.WriteReq_mshr_miss_rate::cpu.data     0.009693                       # mshr miss rate for WriteReq accesses
system.cpu.dcache.WriteReq_mshr_miss_rate::total     0.009693                       # mshr miss rate for WriteReq accesses
system.cpu.dcache.SoftPFReq_mshr_miss_rate::cpu.data     0.869729                       # mshr miss rate for SoftPFReq accesses
system.cpu.dcache.SoftPFReq_mshr_miss_rate::total     0.869729                       # mshr miss rate for SoftPFReq accesses
system.cpu.dcache.demand_mshr_miss_rate::cpu.data     0.003123                       # mshr miss rate for demand accesses
system.cpu.dcache.demand_mshr_miss_rate::total     0.003123                       # mshr miss rate for demand accesses
system.cpu.dcache.overall_mshr_miss_rate::cpu.data     0.003144                       # mshr miss rate for overall accesses
system.cpu.dcache.overall_mshr_miss_rate::total     0.003144                       # mshr miss rate for overall accesses
system.cpu.dcache.ReadReq_avg_mshr_miss_latency::cpu.data 12097.812561                       # average ReadReq mshr miss latency
system.cpu.dcache.ReadReq_avg_mshr_miss_latency::total 12097.812561                       # average ReadReq mshr miss latency
system.cpu.dcache.WriteReq_avg_mshr_miss_latency::cpu.data 12766.604713                       # average WriteReq mshr miss latency
system.cpu.dcache.WriteReq_avg_mshr_miss_latency::total 12766.604713                       # average WriteReq mshr miss latency
system.cpu.dcache.SoftPFReq_avg_mshr_miss_latency::cpu.data 27841.007329                       # average SoftPFReq mshr miss latency
system.cpu.dcache.SoftPFReq_avg_mshr_miss_latency::total 27841.007329                       # average SoftPFReq mshr miss latency
system.cpu.dcache.demand_avg_mshr_miss_latency::cpu.data 12388.489032                       # average overall mshr miss latency
system.cpu.dcache.demand_avg_mshr_miss_latency::total 12388.489032                       # average overall mshr miss latency
system.cpu.dcache.overall_avg_mshr_miss_latency::cpu.data 12491.100722                       # average overall mshr miss latency
system.cpu.dcache.overall_avg_mshr_miss_latency::total 12491.100722                       # average overall mshr miss latency
system.cpu.dcache.no_allocate_misses                0                       # Number of misses that were no-allocate
system.cpu.dtb_walker_cache.tags.replacements            0                       # number of replacements
system.cpu.dtb_walker_cache.tags.tagsinuse            0                       # Cycle average of tags in use
system.cpu.dtb_walker_cache.tags.total_refs            0                       # Total number of references to valid blocks.
system.cpu.dtb_walker_cache.tags.sampled_refs            0                       # Sample count of references to valid blocks.
system.cpu.dtb_walker_cache.tags.avg_refs          nan                       # Average number of references to valid blocks.
system.cpu.dtb_walker_cache.tags.warmup_cycle            0                       # Cycle when the warmup percentage was hit.
system.cpu.dtb_walker_cache.tags.tag_accesses            0                       # Number of tag accesses
system.cpu.dtb_walker_cache.tags.data_accesses            0                       # Number of data accesses
system.cpu.dtb_walker_cache.blocked_cycles::no_mshrs            0                       # number of cycles access was blocked
system.cpu.dtb_walker_cache.blocked_cycles::no_targets            0                       # number of cycles access was blocked
system.cpu.dtb_walker_cache.blocked::no_mshrs            0                       # number of cycles access was blocked
system.cpu.dtb_walker_cache.blocked::no_targets            0                       # number of cycles access was blocked
system.cpu.dtb_walker_cache.avg_blocked_cycles::no_mshrs          nan                       # average number of cycles each access was blocked
system.cpu.dtb_walker_cache.avg_blocked_cycles::no_targets          nan                       # average number of cycles each access was blocked
system.cpu.dtb_walker_cache.fast_writes             0                       # number of fast writes performed
system.cpu.dtb_walker_cache.cache_copies            0                       # number of cache copies performed
system.cpu.dtb_walker_cache.no_allocate_misses            0                       # Number of misses that were no-allocate
system.cpu.icache.tags.replacements                12                       # number of replacements
system.cpu.icache.tags.tagsinuse          1307.528000                       # Cycle average of tags in use
system.cpu.icache.tags.total_refs           695976743                       # Total number of references to valid blocks.
system.cpu.icache.tags.sampled_refs              1322                       # Sample count of references to valid blocks.
system.cpu.icache.tags.avg_refs          526457.445537                       # Average number of references to valid blocks.
system.cpu.icache.tags.warmup_cycle                 0                       # Cycle when the warmup percentage was hit.
system.cpu.icache.tags.occ_blocks::cpu.inst  1307.528000                       # Average occupied blocks per requestor
system.cpu.icache.tags.occ_percent::cpu.inst     0.638441                       # Average percentage of cache occupancy
system.cpu.icache.tags.occ_percent::total     0.638441                       # Average percentage of cache occupancy
system.cpu.icache.tags.occ_task_id_blocks::1024         1310                       # Occupied blocks per task id
system.cpu.icache.tags.age_task_id_blocks_1024::4         1310                       # Occupied blocks per task id
system.cpu.icache.tags.occ_task_id_percent::1024     0.639648                       # Percentage of cache occupancy per task id
system.cpu.icache.tags.tag_accesses        5567825842                       # Number of tag accesses
system.cpu.icache.tags.data_accesses       5567825842                       # Number of data accesses
system.cpu.icache.ReadReq_hits::cpu.inst    695976743                       # number of ReadReq hits
system.cpu.icache.ReadReq_hits::total       695976743                       # number of ReadReq hits
system.cpu.icache.demand_hits::cpu.inst     695976743                       # number of demand (read+write) hits
system.cpu.icache.demand_hits::total        695976743                       # number of demand (read+write) hits
system.cpu.icache.overall_hits::cpu.inst    695976743                       # number of overall hits
system.cpu.icache.overall_hits::total       695976743                       # number of overall hits
system.cpu.icache.ReadReq_misses::cpu.inst         1322                       # number of ReadReq misses
system.cpu.icache.ReadReq_misses::total          1322                       # number of ReadReq misses
system.cpu.icache.demand_misses::cpu.inst         1322                       # number of demand (read+write) misses
system.cpu.icache.demand_misses::total           1322                       # number of demand (read+write) misses
system.cpu.icache.overall_misses::cpu.inst         1322                       # number of overall misses
system.cpu.icache.overall_misses::total          1322                       # number of overall misses
system.cpu.icache.ReadReq_miss_latency::cpu.inst    104254500                       # number of ReadReq miss cycles
system.cpu.icache.ReadReq_miss_latency::total    104254500                       # number of ReadReq miss cycles
system.cpu.icache.demand_miss_latency::cpu.inst    104254500                       # number of demand (read+write) miss cycles
system.cpu.icache.demand_miss_latency::total    104254500                       # number of demand (read+write) miss cycles
system.cpu.icache.overall_miss_latency::cpu.inst    104254500                       # number of overall miss cycles
system.cpu.icache.overall_miss_latency::total    104254500                       # number of overall miss cycles
system.cpu.icache.ReadReq_accesses::cpu.inst    695978065                       # number of ReadReq accesses(hits+misses)
system.cpu.icache.ReadReq_accesses::total    695978065                       # number of ReadReq accesses(hits+misses)
system.cpu.icache.demand_accesses::cpu.inst    695978065                       # number of demand (read+write) accesses
system.cpu.icache.demand_accesses::total    695978065                       # number of demand (read+write) accesses
system.cpu.icache.overall_accesses::cpu.inst    695978065                       # number of overall (read+write) accesses
system.cpu.icache.overall_accesses::total    695978065                       # number of overall (read+write) accesses
system.cpu.icache.ReadReq_miss_rate::cpu.inst     0.000002                       # miss rate for ReadReq accesses
system.cpu.icache.ReadReq_miss_rate::total     0.000002                       # miss rate for ReadReq accesses
system.cpu.icache.demand_miss_rate::cpu.inst     0.000002                       # miss rate for demand accesses
system.cpu.icache.demand_miss_rate::total     0.000002                       # miss rate for demand accesses
system.cpu.icache.overall_miss_rate::cpu.inst     0.000002                       # miss rate for overall accesses
system.cpu.icache.overall_miss_rate::total     0.000002                       # miss rate for overall accesses
system.cpu.icache.ReadReq_avg_miss_latency::cpu.inst 78861.195159                       # average ReadReq miss latency
system.cpu.icache.ReadReq_avg_miss_latency::total 78861.195159                       # average ReadReq miss latency
system.cpu.icache.demand_avg_miss_latency::cpu.inst 78861.195159                       # average overall miss latency
system.cpu.icache.demand_avg_miss_latency::total 78861.195159                       # average overall miss latency
system.cpu.icache.overall_avg_miss_latency::cpu.inst 78861.195159                       # average overall miss latency
system.cpu.icache.overall_avg_miss_latency::total 78861.195159                       # average overall miss latency
system.cpu.icache.blocked_cycles::no_mshrs            0                       # number of cycles access was blocked
system.cpu.icache.blocked_cycles::no_targets            0                       # number of cycles access was blocked
system.cpu.icache.blocked::no_mshrs                 0                       # number of cycles access was blocked
system.cpu.icache.blocked::no_targets               0                       # number of cycles access was blocked
system.cpu.icache.avg_blocked_cycles::no_mshrs          nan                       # average number of cycles each access was blocked
system.cpu.icache.avg_blocked_cycles::no_targets          nan                       # average number of cycles each access was blocked
system.cpu.icache.fast_writes                       0                       # number of fast writes performed
system.cpu.icache.cache_copies                      0                       # number of cache copies performed
system.cpu.icache.writebacks::writebacks           12                       # number of writebacks
system.cpu.icache.writebacks::total                12                       # number of writebacks
system.cpu.icache.ReadReq_mshr_misses::cpu.inst         1322                       # number of ReadReq MSHR misses
system.cpu.icache.ReadReq_mshr_misses::total         1322                       # number of ReadReq MSHR misses
system.cpu.icache.demand_mshr_misses::cpu.inst         1322                       # number of demand (read+write) MSHR misses
system.cpu.icache.demand_mshr_misses::total         1322                       # number of demand (read+write) MSHR misses
system.cpu.icache.overall_mshr_misses::cpu.inst         1322                       # number of overall MSHR misses
system.cpu.icache.overall_mshr_misses::total         1322                       # number of overall MSHR misses
system.cpu.icache.ReadReq_mshr_miss_latency::cpu.inst    102932500                       # number of ReadReq MSHR miss cycles
system.cpu.icache.ReadReq_mshr_miss_latency::total    102932500                       # number of ReadReq MSHR miss cycles
system.cpu.icache.demand_mshr_miss_latency::cpu.inst    102932500                       # number of demand (read+write) MSHR miss cycles
system.cpu.icache.demand_mshr_miss_latency::total    102932500                       # number of demand (read+write) MSHR miss cycles
system.cpu.icache.overall_mshr_miss_latency::cpu.inst    102932500                       # number of overall MSHR miss cycles
system.cpu.icache.overall_mshr_miss_latency::total    102932500                       # number of overall MSHR miss cycles
system.cpu.icache.ReadReq_mshr_miss_rate::cpu.inst     0.000002                       # mshr miss rate for ReadReq accesses
system.cpu.icache.ReadReq_mshr_miss_rate::total     0.000002                       # mshr miss rate for ReadReq accesses
system.cpu.icache.demand_mshr_miss_rate::cpu.inst     0.000002                       # mshr miss rate for demand accesses
system.cpu.icache.demand_mshr_miss_rate::total     0.000002                       # mshr miss rate for demand accesses
system.cpu.icache.overall_mshr_miss_rate::cpu.inst     0.000002                       # mshr miss rate for overall accesses
system.cpu.icache.overall_mshr_miss_rate::total     0.000002                       # mshr miss rate for overall accesses
system.cpu.icache.ReadReq_avg_mshr_miss_latency::cpu.inst 77861.195159                       # average ReadReq mshr miss latency
system.cpu.icache.ReadReq_avg_mshr_miss_latency::total 77861.195159                       # average ReadReq mshr miss latency
system.cpu.icache.demand_avg_mshr_miss_latency::cpu.inst 77861.195159                       # average overall mshr miss latency
system.cpu.icache.demand_avg_mshr_miss_latency::total 77861.195159                       # average overall mshr miss latency
system.cpu.icache.overall_avg_mshr_miss_latency::cpu.inst 77861.195159                       # average overall mshr miss latency
system.cpu.icache.overall_avg_mshr_miss_latency::total 77861.195159                       # average overall mshr miss latency
system.cpu.icache.no_allocate_misses                0                       # Number of misses that were no-allocate
system.cpu.itb_walker_cache.tags.replacements            0                       # number of replacements
system.cpu.itb_walker_cache.tags.tagsinuse            0                       # Cycle average of tags in use
system.cpu.itb_walker_cache.tags.total_refs            0                       # Total number of references to valid blocks.
system.cpu.itb_walker_cache.tags.sampled_refs            0                       # Sample count of references to valid blocks.
system.cpu.itb_walker_cache.tags.avg_refs          nan                       # Average number of references to valid blocks.
system.cpu.itb_walker_cache.tags.warmup_cycle            0                       # Cycle when the warmup percentage was hit.
system.cpu.itb_walker_cache.tags.tag_accesses            0                       # Number of tag accesses
system.cpu.itb_walker_cache.tags.data_accesses            0                       # Number of data accesses
system.cpu.itb_walker_cache.blocked_cycles::no_mshrs            0                       # number of cycles access was blocked
system.cpu.itb_walker_cache.blocked_cycles::no_targets            0                       # number of cycles access was blocked
system.cpu.itb_walker_cache.blocked::no_mshrs            0                       # number of cycles access was blocked
system.cpu.itb_walker_cache.blocked::no_targets            0                       # number of cycles access was blocked
system.cpu.itb_walker_cache.avg_blocked_cycles::no_mshrs          nan                       # average number of cycles each access was blocked
system.cpu.itb_walker_cache.avg_blocked_cycles::no_targets          nan                       # average number of cycles each access was blocked
system.cpu.itb_walker_cache.fast_writes             0                       # number of fast writes performed
system.cpu.itb_walker_cache.cache_copies            0                       # number of cache copies performed
system.cpu.itb_walker_cache.no_allocate_misses            0                       # Number of misses that were no-allocate
system.l2.tags.replacements                       393                       # number of replacements
system.l2.tags.tagsinuse                  5428.657280                       # Cycle average of tags in use
system.l2.tags.total_refs                     1152739                       # Total number of references to valid blocks.
system.l2.tags.sampled_refs                      6176                       # Sample count of references to valid blocks.
system.l2.tags.avg_refs                    186.648154                       # Average number of references to valid blocks.
system.l2.tags.warmup_cycle                         0                       # Cycle when the warmup percentage was hit.
system.l2.tags.occ_blocks::writebacks     3827.258339                       # Average occupied blocks per requestor
system.l2.tags.occ_blocks::cpu.inst       1032.715163                       # Average occupied blocks per requestor
system.l2.tags.occ_blocks::cpu.data        568.683778                       # Average occupied blocks per requestor
system.l2.tags.occ_percent::writebacks       0.233597                       # Average percentage of cache occupancy
system.l2.tags.occ_percent::cpu.inst         0.063032                       # Average percentage of cache occupancy
system.l2.tags.occ_percent::cpu.data         0.034710                       # Average percentage of cache occupancy
system.l2.tags.occ_percent::total            0.331339                       # Average percentage of cache occupancy
system.l2.tags.occ_task_id_blocks::1024          5783                       # Occupied blocks per task id
system.l2.tags.age_task_id_blocks_1024::0            2                       # Occupied blocks per task id
system.l2.tags.age_task_id_blocks_1024::1           18                       # Occupied blocks per task id
system.l2.tags.age_task_id_blocks_1024::2          186                       # Occupied blocks per task id
system.l2.tags.age_task_id_blocks_1024::3          545                       # Occupied blocks per task id
system.l2.tags.age_task_id_blocks_1024::4         5032                       # Occupied blocks per task id
system.l2.tags.occ_task_id_percent::1024     0.352966                       # Percentage of cache occupancy per task id
system.l2.tags.tag_accesses                   1955043                       # Number of tag accesses
system.l2.tags.data_accesses                  1955043                       # Number of data accesses
system.l2.WritebackDirty_hits::writebacks       794552                       # number of WritebackDirty hits
system.l2.WritebackDirty_hits::total           794552                       # number of WritebackDirty hits
system.l2.WritebackClean_hits::writebacks           12                       # number of WritebackClean hits
system.l2.WritebackClean_hits::total               12                       # number of WritebackClean hits
system.l2.ReadExReq_hits::cpu.data             342177                       # number of ReadExReq hits
system.l2.ReadExReq_hits::total                342177                       # number of ReadExReq hits
system.l2.ReadCleanReq_hits::cpu.inst               1                       # number of ReadCleanReq hits
system.l2.ReadCleanReq_hits::total                  1                       # number of ReadCleanReq hits
system.l2.ReadSharedReq_hits::cpu.data         453402                       # number of ReadSharedReq hits
system.l2.ReadSharedReq_hits::total            453402                       # number of ReadSharedReq hits
system.l2.demand_hits::cpu.inst                     1                       # number of demand (read+write) hits
system.l2.demand_hits::cpu.data                795579                       # number of demand (read+write) hits
system.l2.demand_hits::total                   795580                       # number of demand (read+write) hits
system.l2.overall_hits::cpu.inst                    1                       # number of overall hits
system.l2.overall_hits::cpu.data               795579                       # number of overall hits
system.l2.overall_hits::total                  795580                       # number of overall hits
system.l2.ReadExReq_misses::cpu.data             3779                       # number of ReadExReq misses
system.l2.ReadExReq_misses::total                3779                       # number of ReadExReq misses
system.l2.ReadCleanReq_misses::cpu.inst          1321                       # number of ReadCleanReq misses
system.l2.ReadCleanReq_misses::total             1321                       # number of ReadCleanReq misses
system.l2.ReadSharedReq_misses::cpu.data         1943                       # number of ReadSharedReq misses
system.l2.ReadSharedReq_misses::total            1943                       # number of ReadSharedReq misses
system.l2.demand_misses::cpu.inst                1321                       # number of demand (read+write) misses
system.l2.demand_misses::cpu.data                5722                       # number of demand (read+write) misses
system.l2.demand_misses::total                   7043                       # number of demand (read+write) misses
system.l2.overall_misses::cpu.inst               1321                       # number of overall misses
system.l2.overall_misses::cpu.data               5722                       # number of overall misses
system.l2.overall_misses::total                  7043                       # number of overall misses
system.l2.ReadExReq_miss_latency::cpu.data    304286500                       # number of ReadExReq miss cycles
system.l2.ReadExReq_miss_latency::total     304286500                       # number of ReadExReq miss cycles
system.l2.ReadCleanReq_miss_latency::cpu.inst    100938000                       # number of ReadCleanReq miss cycles
system.l2.ReadCleanReq_miss_latency::total    100938000                       # number of ReadCleanReq miss cycles
system.l2.ReadSharedReq_miss_latency::cpu.data    148701500                       # number of ReadSharedReq miss cycles
system.l2.ReadSharedReq_miss_latency::total    148701500                       # number of ReadSharedReq miss cycles
system.l2.demand_miss_latency::cpu.inst     100938000                       # number of demand (read+write) miss cycles
system.l2.demand_miss_latency::cpu.data     452988000                       # number of demand (read+write) miss cycles
system.l2.demand_miss_latency::total        553926000                       # number of demand (read+write) miss cycles
system.l2.overall_miss_latency::cpu.inst    100938000                       # number of overall miss cycles
system.l2.overall_miss_latency::cpu.data    452988000                       # number of overall miss cycles
system.l2.overall_miss_latency::total       553926000                       # number of overall miss cycles
system.l2.WritebackDirty_accesses::writebacks       794552                       # number of WritebackDirty accesses(hits+misses)
system.l2.WritebackDirty_accesses::total       794552                       # number of WritebackDirty accesses(hits+misses)
system.l2.WritebackClean_accesses::writebacks           12                       # number of WritebackClean accesses(hits+misses)
system.l2.WritebackClean_accesses::total           12                       # number of WritebackClean accesses(hits+misses)
system.l2.ReadExReq_accesses::cpu.data         345956                       # number of ReadExReq accesses(hits+misses)
system.l2.ReadExReq_accesses::total            345956                       # number of ReadExReq accesses(hits+misses)
system.l2.ReadCleanReq_accesses::cpu.inst         1322                       # number of ReadCleanReq accesses(hits+misses)
system.l2.ReadCleanReq_accesses::total           1322                       # number of ReadCleanReq accesses(hits+misses)
system.l2.ReadSharedReq_accesses::cpu.data       455345                       # number of ReadSharedReq accesses(hits+misses)
system.l2.ReadSharedReq_accesses::total        455345                       # number of ReadSharedReq accesses(hits+misses)
system.l2.demand_accesses::cpu.inst              1322                       # number of demand (read+write) accesses
system.l2.demand_accesses::cpu.data            801301                       # number of demand (read+write) accesses
system.l2.demand_accesses::total               802623                       # number of demand (read+write) accesses
system.l2.overall_accesses::cpu.inst             1322                       # number of overall (read+write) accesses
system.l2.overall_accesses::cpu.data           801301                       # number of overall (read+write) accesses
system.l2.overall_accesses::total              802623                       # number of overall (read+write) accesses
system.l2.ReadExReq_miss_rate::cpu.data      0.010923                       # miss rate for ReadExReq accesses
system.l2.ReadExReq_miss_rate::total         0.010923                       # miss rate for ReadExReq accesses
system.l2.ReadCleanReq_miss_rate::cpu.inst     0.999244                       # miss rate for ReadCleanReq accesses
system.l2.ReadCleanReq_miss_rate::total      0.999244                       # miss rate for ReadCleanReq accesses
system.l2.ReadSharedReq_miss_rate::cpu.data     0.004267                       # miss rate for ReadSharedReq accesses
system.l2.ReadSharedReq_miss_rate::total     0.004267                       # miss rate for ReadSharedReq accesses
system.l2.demand_miss_rate::cpu.inst         0.999244                       # miss rate for demand accesses
system.l2.demand_miss_rate::cpu.data         0.007141                       # miss rate for demand accesses
system.l2.demand_miss_rate::total            0.008775                       # miss rate for demand accesses
system.l2.overall_miss_rate::cpu.inst        0.999244                       # miss rate for overall accesses
system.l2.overall_miss_rate::cpu.data        0.007141                       # miss rate for overall accesses
system.l2.overall_miss_rate::total           0.008775                       # miss rate for overall accesses
system.l2.ReadExReq_avg_miss_latency::cpu.data 80520.375761                       # average ReadExReq miss latency
system.l2.ReadExReq_avg_miss_latency::total 80520.375761                       # average ReadExReq miss latency
system.l2.ReadCleanReq_avg_miss_latency::cpu.inst 76410.295231                       # average ReadCleanReq miss latency
system.l2.ReadCleanReq_avg_miss_latency::total 76410.295231                       # average ReadCleanReq miss latency
system.l2.ReadSharedReq_avg_miss_latency::cpu.data 76531.909418                       # average ReadSharedReq miss latency
system.l2.ReadSharedReq_avg_miss_latency::total 76531.909418                       # average ReadSharedReq miss latency
system.l2.demand_avg_miss_latency::cpu.inst 76410.295231                       # average overall miss latency
system.l2.demand_avg_miss_latency::cpu.data 79166.025865                       # average overall miss latency
system.l2.demand_avg_miss_latency::total 78649.155190                       # average overall miss latency
system.l2.overall_avg_miss_latency::cpu.inst 76410.295231                       # average overall miss latency
system.l2.overall_avg_miss_latency::cpu.data 79166.025865                       # average overall miss latency
system.l2.overall_avg_miss_latency::total 78649.155190                       # average overall miss latency
system.l2.blocked_cycles::no_mshrs                  0                       # number of cycles access was blocked
system.l2.blocked_cycles::no_targets                0                       # number of cycles access was blocked
system.l2.blocked::no_mshrs                         0                       # number of cycles access was blocked
system.l2.blocked::no_targets                       0                       # number of cycles access was blocked
system.l2.avg_blocked_cycles::no_mshrs            nan                       # average number of cycles each access was blocked
system.l2.avg_blocked_cycles::no_targets          nan                       # average number of cycles each access was blocked
system.l2.fast_writes                               0                       # number of fast writes performed
system.l2.cache_copies                              0                       # number of cache copies performed
system.l2.writebacks::writebacks                   18                       # number of writebacks
system.l2.writebacks::total                        18                       # number of writebacks
system.l2.CleanEvict_mshr_misses::writebacks            6                       # number of CleanEvict MSHR misses
system.l2.CleanEvict_mshr_misses::total             6                       # number of CleanEvict MSHR misses
system.l2.ReadExReq_mshr_misses::cpu.data         3779                       # number of ReadExReq MSHR misses
system.l2.ReadExReq_mshr_misses::total           3779                       # number of ReadExReq MSHR misses
system.l2.ReadCleanReq_mshr_misses::cpu.inst         1321                       # number of ReadCleanReq MSHR misses
system.l2.ReadCleanReq_mshr_misses::total         1321                       # number of ReadCleanReq MSHR misses
system.l2.ReadSharedReq_mshr_misses::cpu.data         1943                       # number of ReadSharedReq MSHR misses
system.l2.ReadSharedReq_mshr_misses::total         1943                       # number of ReadSharedReq MSHR misses
system.l2.demand_mshr_misses::cpu.inst           1321                       # number of demand (read+write) MSHR misses
system.l2.demand_mshr_misses::cpu.data           5722                       # number of demand (read+write) MSHR misses
system.l2.demand_mshr_misses::total              7043                       # number of demand (read+write) MSHR misses
system.l2.overall_mshr_misses::cpu.inst          1321                       # number of overall MSHR misses
system.l2.overall_mshr_misses::cpu.data          5722                       # number of overall MSHR misses
system.l2.overall_mshr_misses::total             7043                       # number of overall MSHR misses
system.l2.ReadExReq_mshr_miss_latency::cpu.data    266496500                       # number of ReadExReq MSHR miss cycles
system.l2.ReadExReq_mshr_miss_latency::total    266496500                       # number of ReadExReq MSHR miss cycles
system.l2.ReadCleanReq_mshr_miss_latency::cpu.inst     87728000                       # number of ReadCleanReq MSHR miss cycles
system.l2.ReadCleanReq_mshr_miss_latency::total     87728000                       # number of ReadCleanReq MSHR miss cycles
system.l2.ReadSharedReq_mshr_miss_latency::cpu.data    129271500                       # number of ReadSharedReq MSHR miss cycles
system.l2.ReadSharedReq_mshr_miss_latency::total    129271500                       # number of ReadSharedReq MSHR miss cycles
system.l2.demand_mshr_miss_latency::cpu.inst     87728000                       # number of demand (read+write) MSHR miss cycles
system.l2.demand_mshr_miss_latency::cpu.data    395768000                       # number of demand (read+write) MSHR miss cycles
system.l2.demand_mshr_miss_latency::total    483496000                       # number of demand (read+write) MSHR miss cycles
system.l2.overall_mshr_miss_latency::cpu.inst     87728000                       # number of overall MSHR miss cycles
system.l2.overall_mshr_miss_latency::cpu.data    395768000                       # number of overall MSHR miss cycles
system.l2.overall_mshr_miss_latency::total    483496000                       # number of overall MSHR miss cycles
system.l2.CleanEvict_mshr_miss_rate::writebacks          inf                       # mshr miss rate for CleanEvict accesses
system.l2.CleanEvict_mshr_miss_rate::total          inf                       # mshr miss rate for CleanEvict accesses
system.l2.ReadExReq_mshr_miss_rate::cpu.data     0.010923                       # mshr miss rate for ReadExReq accesses
system.l2.ReadExReq_mshr_miss_rate::total     0.010923                       # mshr miss rate for ReadExReq accesses
system.l2.ReadCleanReq_mshr_miss_rate::cpu.inst     0.999244                       # mshr miss rate for ReadCleanReq accesses
system.l2.ReadCleanReq_mshr_miss_rate::total     0.999244                       # mshr miss rate for ReadCleanReq accesses
system.l2.ReadSharedReq_mshr_miss_rate::cpu.data     0.004267                       # mshr miss rate for ReadSharedReq accesses
system.l2.ReadSharedReq_mshr_miss_rate::total     0.004267                       # mshr miss rate for ReadSharedReq accesses
system.l2.demand_mshr_miss_rate::cpu.inst     0.999244                       # mshr miss rate for demand accesses
system.l2.demand_mshr_miss_rate::cpu.data     0.007141                       # mshr miss rate for demand accesses
system.l2.demand_mshr_miss_rate::total       0.008775                       # mshr miss rate for demand accesses
system.l2.overall_mshr_miss_rate::cpu.inst     0.999244                       # mshr miss rate for overall accesses
system.l2.overall_mshr_miss_rate::cpu.data     0.007141                       # mshr miss rate for overall accesses
system.l2.overall_mshr_miss_rate::total      0.008775                       # mshr miss rate for overall accesses
system.l2.ReadExReq_avg_mshr_miss_latency::cpu.data 70520.375761                       # average ReadExReq mshr miss latency
system.l2.ReadExReq_avg_mshr_miss_latency::total 70520.375761                       # average ReadExReq mshr miss latency
system.l2.ReadCleanReq_avg_mshr_miss_latency::cpu.inst 66410.295231                       # average ReadCleanReq mshr miss latency
system.l2.ReadCleanReq_avg_mshr_miss_latency::total 66410.295231                       # average ReadCleanReq mshr miss latency
system.l2.ReadSharedReq_avg_mshr_miss_latency::cpu.data 66531.909418                       # average ReadSharedReq mshr miss latency
system.l2.ReadSharedReq_avg_mshr_miss_latency::total 66531.909418                       # average ReadSharedReq mshr miss latency
system.l2.demand_avg_mshr_miss_latency::cpu.inst 66410.295231                       # average overall mshr miss latency
system.l2.demand_avg_mshr_miss_latency::cpu.data 69166.025865                       # average overall mshr miss latency
system.l2.demand_avg_mshr_miss_latency::total 68649.155190                       # average overall mshr miss latency
system.l2.overall_avg_mshr_miss_latency::cpu.inst 66410.295231                       # average overall mshr miss latency
system.l2.overall_avg_mshr_miss_latency::cpu.data 69166.025865                       # average overall mshr miss latency
system.l2.overall_avg_mshr_miss_latency::total 68649.155190                       # average overall mshr miss latency
system.l2.no_allocate_misses                        0                       # Number of misses that were no-allocate
system.membus.trans_dist::ReadResp               3264                       # Transaction distribution
system.membus.trans_dist::WritebackDirty           18                       # Transaction distribution
system.membus.trans_dist::CleanEvict               64                       # Transaction distribution
system.membus.trans_dist::ReadExReq              3779                       # Transaction distribution
system.membus.trans_dist::ReadExResp             3779                       # Transaction distribution
system.membus.trans_dist::ReadSharedReq          3264                       # Transaction distribution
system.membus.pkt_count_system.l2.mem_side::system.mem_ctrls.port        14168                       # Packet count per connected master and slave (bytes)
system.membus.pkt_count_system.l2.mem_side::total        14168                       # Packet count per connected master and slave (bytes)
system.membus.pkt_count::total                  14168                       # Packet count per connected master and slave (bytes)
system.membus.pkt_size_system.l2.mem_side::system.mem_ctrls.port       451904                       # Cumulative packet size per connected master and slave (bytes)
system.membus.pkt_size_system.l2.mem_side::total       451904                       # Cumulative packet size per connected master and slave (bytes)
system.membus.pkt_size::total                  451904                       # Cumulative packet size per connected master and slave (bytes)
system.membus.snoops                                0                       # Total snoops (count)
system.membus.snoop_fanout::samples              7125                       # Request fanout histogram
system.membus.snoop_fanout::mean                    0                       # Request fanout histogram
system.membus.snoop_fanout::stdev                   0                       # Request fanout histogram
system.membus.snoop_fanout::underflows              0      0.00%      0.00% # Request fanout histogram
system.membus.snoop_fanout::0                    7125    100.00%    100.00% # Request fanout histogram
system.membus.snoop_fanout::1                       0      0.00%    100.00% # Request fanout histogram
system.membus.snoop_fanout::overflows               0      0.00%    100.00% # Request fanout histogram
system.membus.snoop_fanout::min_value               0                       # Request fanout histogram
system.membus.snoop_fanout::max_value               0                       # Request fanout histogram
system.membus.snoop_fanout::total                7125                       # Request fanout histogram
system.membus.reqLayer2.occupancy             7875500                       # Layer occupancy (ticks)
system.membus.reqLayer2.utilization               0.0                       # Layer utilization (%)
system.membus.respLayer1.occupancy           37445000                       # Layer occupancy (ticks)
system.membus.respLayer1.utilization              0.0                       # Layer utilization (%)
system.tol2bus.snoop_filter.tot_requests      1602912                       # Total number of requests made to the snoop filter.
system.tol2bus.snoop_filter.hit_single_requests       800289                       # Number of requests hitting in the snoop filter with a single holder of the requested data.
system.tol2bus.snoop_filter.hit_multi_requests            1                       # Number of requests hitting in the snoop filter with multiple (>1) holders of the requested data.
system.tol2bus.snoop_filter.tot_snoops            317                       # Total number of snoops made to the snoop filter.
system.tol2bus.snoop_filter.hit_single_snoops          317                       # Number of snoops hitting in the snoop filter with a single holder of the requested data.
system.tol2bus.snoop_filter.hit_multi_snoops            0                       # Number of snoops hitting in the snoop filter with multiple (>1) holders of the requested data.
system.tol2bus.trans_dist::ReadResp            456667                       # Transaction distribution
system.tol2bus.trans_dist::WritebackDirty       794570                       # Transaction distribution
system.tol2bus.trans_dist::WritebackClean           12                       # Transaction distribution
system.tol2bus.trans_dist::CleanEvict            6099                       # Transaction distribution
system.tol2bus.trans_dist::ReadExReq           345956                       # Transaction distribution
system.tol2bus.trans_dist::ReadExResp          345956                       # Transaction distribution
system.tol2bus.trans_dist::ReadCleanReq          1322                       # Transaction distribution
system.tol2bus.trans_dist::ReadSharedReq       455345                       # Transaction distribution
system.tol2bus.pkt_count_system.cpu.icache.mem_side::system.l2.cpu_side         2656                       # Packet count per connected master and slave (bytes)
system.tol2bus.pkt_count_system.cpu.dcache.mem_side::system.l2.cpu_side      2402878                       # Packet count per connected master and slave (bytes)
system.tol2bus.pkt_count::total               2405534                       # Packet count per connected master and slave (bytes)
system.tol2bus.pkt_size_system.cpu.icache.mem_side::system.l2.cpu_side        85376                       # Cumulative packet size per connected master and slave (bytes)
system.tol2bus.pkt_size_system.cpu.dcache.mem_side::system.l2.cpu_side    102134592                       # Cumulative packet size per connected master and slave (bytes)
system.tol2bus.pkt_size::total              102219968                       # Cumulative packet size per connected master and slave (bytes)
system.tol2bus.snoops                             393                       # Total snoops (count)
system.tol2bus.snoop_fanout::samples           803016                       # Request fanout histogram
system.tol2bus.snoop_fanout::mean            0.000396                       # Request fanout histogram
system.tol2bus.snoop_fanout::stdev           0.019896                       # Request fanout histogram
system.tol2bus.snoop_fanout::underflows             0      0.00%      0.00% # Request fanout histogram
system.tol2bus.snoop_fanout::0                 802698     99.96%     99.96% # Request fanout histogram
system.tol2bus.snoop_fanout::1                    318      0.04%    100.00% # Request fanout histogram
system.tol2bus.snoop_fanout::2                      0      0.00%    100.00% # Request fanout histogram
system.tol2bus.snoop_fanout::3                      0      0.00%    100.00% # Request fanout histogram
system.tol2bus.snoop_fanout::4                      0      0.00%    100.00% # Request fanout histogram
system.tol2bus.snoop_fanout::overflows              0      0.00%    100.00% # Request fanout histogram
system.tol2bus.snoop_fanout::min_value              0                       # Request fanout histogram
system.tol2bus.snoop_fanout::max_value              1                       # Request fanout histogram
system.tol2bus.snoop_fanout::total             803016                       # Request fanout histogram
system.tol2bus.reqLayer0.occupancy         1596020000                       # Layer occupancy (ticks)
system.tol2bus.reqLayer0.utilization              0.2                       # Layer utilization (%)
system.tol2bus.respLayer0.occupancy           1983000                       # Layer occupancy (ticks)
system.tol2bus.respLayer0.utilization             0.0                       # Layer utilization (%)
system.tol2bus.respLayer1.occupancy        1201951500                       # Layer occupancy (ticks)
system.tol2bus.respLayer1.utilization             0.1                       # Layer utilization (%)

---------- End Simulation Statistics   ----------
