
---------- Begin Simulation Statistics ----------
sim_seconds                                  0.954318                       # Number of seconds simulated
sim_ticks                                954318398500                       # Number of ticks simulated
final_tick                               954318398500                       # Number of ticks from beginning of simulation (restored from checkpoints and never reset)
sim_freq                                 1000000000000                       # Frequency of simulated ticks
host_inst_rate                                 795984                       # Simulator instruction rate (inst/s)
host_op_rate                                  1026654                       # Simulator op (including micro ops) rate (op/s)
host_tick_rate                             1519245122                       # Simulator tick rate (ticks/s)
host_mem_usage                                 835980                       # Number of bytes of host memory used
host_seconds                                   628.15                       # Real time elapsed on the host
sim_insts                                   500000000                       # Number of instructions simulated
sim_ops                                     644895733                       # Number of ops (including micro ops) simulated
system.voltage_domain.voltage                       1                       # Voltage in Volts
system.clk_domain.clock                          1000                       # Clock period in ticks
system.mem_ctrls.bytes_read::cpu.inst           72832                       # Number of bytes read from this memory
system.mem_ctrls.bytes_read::cpu.data          357536                       # Number of bytes read from this memory
system.mem_ctrls.bytes_read::total             430368                       # Number of bytes read from this memory
system.mem_ctrls.bytes_inst_read::cpu.inst        72832                       # Number of instructions bytes read from this memory
system.mem_ctrls.bytes_inst_read::total         72832                       # Number of instructions bytes read from this memory
system.mem_ctrls.bytes_written::writebacks          768                       # Number of bytes written to this memory
system.mem_ctrls.bytes_written::total             768                       # Number of bytes written to this memory
system.mem_ctrls.num_reads::cpu.inst             2276                       # Number of read requests responded to by this memory
system.mem_ctrls.num_reads::cpu.data            11173                       # Number of read requests responded to by this memory
system.mem_ctrls.num_reads::total               13449                       # Number of read requests responded to by this memory
system.mem_ctrls.num_writes::writebacks            24                       # Number of write requests responded to by this memory
system.mem_ctrls.num_writes::total                 24                       # Number of write requests responded to by this memory
system.mem_ctrls.bw_read::cpu.inst              76318                       # Total read bandwidth from this memory (bytes/s)
system.mem_ctrls.bw_read::cpu.data             374651                       # Total read bandwidth from this memory (bytes/s)
system.mem_ctrls.bw_read::total                450969                       # Total read bandwidth from this memory (bytes/s)
system.mem_ctrls.bw_inst_read::cpu.inst         76318                       # Instruction read bandwidth from this memory (bytes/s)
system.mem_ctrls.bw_inst_read::total            76318                       # Instruction read bandwidth from this memory (bytes/s)
system.mem_ctrls.bw_write::writebacks             805                       # Write bandwidth from this memory (bytes/s)
system.mem_ctrls.bw_write::total                  805                       # Write bandwidth from this memory (bytes/s)
system.mem_ctrls.bw_total::writebacks             805                       # Total bandwidth to/from this memory (bytes/s)
system.mem_ctrls.bw_total::cpu.inst             76318                       # Total bandwidth to/from this memory (bytes/s)
system.mem_ctrls.bw_total::cpu.data            374651                       # Total bandwidth to/from this memory (bytes/s)
system.mem_ctrls.bw_total::total               451774                       # Total bandwidth to/from this memory (bytes/s)
system.mem_ctrls.readReqs                       13449                       # Number of read requests accepted
system.mem_ctrls.writeReqs                         24                       # Number of write requests accepted
system.mem_ctrls.readBursts                     13449                       # Number of DRAM read bursts, including those serviced by the write queue
system.mem_ctrls.writeBursts                       24                       # Number of DRAM write bursts, including those merged in the write queue
system.mem_ctrls.bytesReadDRAM                 860416                       # Total number of bytes read from DRAM
system.mem_ctrls.bytesReadWrQ                     320                       # Total number of bytes read from write queue
system.mem_ctrls.bytesWritten                       0                       # Total number of bytes written to DRAM
system.mem_ctrls.bytesReadSys                  430368                       # Total read bytes from the system interface side
system.mem_ctrls.bytesWrittenSys                  768                       # Total written bytes from the system interface side
system.mem_ctrls.servicedByWrQ                      5                       # Number of DRAM read bursts serviced by the write queue
system.mem_ctrls.mergedWrBursts                     5                       # Number of DRAM write bursts merged with an existing one
system.mem_ctrls.neitherReadNorWriteReqs          309                       # Number of requests that are neither read nor write
system.mem_ctrls.perBankRdBursts::0               605                       # Per bank write bursts
system.mem_ctrls.perBankRdBursts::1               674                       # Per bank write bursts
system.mem_ctrls.perBankRdBursts::2               820                       # Per bank write bursts
system.mem_ctrls.perBankRdBursts::3               610                       # Per bank write bursts
system.mem_ctrls.perBankRdBursts::4               896                       # Per bank write bursts
system.mem_ctrls.perBankRdBursts::5               778                       # Per bank write bursts
system.mem_ctrls.perBankRdBursts::6               659                       # Per bank write bursts
system.mem_ctrls.perBankRdBursts::7               785                       # Per bank write bursts
system.mem_ctrls.perBankRdBursts::8               928                       # Per bank write bursts
system.mem_ctrls.perBankRdBursts::9               959                       # Per bank write bursts
system.mem_ctrls.perBankRdBursts::10             1039                       # Per bank write bursts
system.mem_ctrls.perBankRdBursts::11             1136                       # Per bank write bursts
system.mem_ctrls.perBankRdBursts::12              949                       # Per bank write bursts
system.mem_ctrls.perBankRdBursts::13              884                       # Per bank write bursts
system.mem_ctrls.perBankRdBursts::14              852                       # Per bank write bursts
system.mem_ctrls.perBankRdBursts::15              870                       # Per bank write bursts
system.mem_ctrls.perBankWrBursts::0                 0                       # Per bank write bursts
system.mem_ctrls.perBankWrBursts::1                 0                       # Per bank write bursts
system.mem_ctrls.perBankWrBursts::2                 0                       # Per bank write bursts
system.mem_ctrls.perBankWrBursts::3                 0                       # Per bank write bursts
system.mem_ctrls.perBankWrBursts::4                 0                       # Per bank write bursts
system.mem_ctrls.perBankWrBursts::5                 0                       # Per bank write bursts
system.mem_ctrls.perBankWrBursts::6                 0                       # Per bank write bursts
system.mem_ctrls.perBankWrBursts::7                 0                       # Per bank write bursts
system.mem_ctrls.perBankWrBursts::8                 0                       # Per bank write bursts
system.mem_ctrls.perBankWrBursts::9                 0                       # Per bank write bursts
system.mem_ctrls.perBankWrBursts::10                0                       # Per bank write bursts
system.mem_ctrls.perBankWrBursts::11                0                       # Per bank write bursts
system.mem_ctrls.perBankWrBursts::12                0                       # Per bank write bursts
system.mem_ctrls.perBankWrBursts::13                0                       # Per bank write bursts
system.mem_ctrls.perBankWrBursts::14                0                       # Per bank write bursts
system.mem_ctrls.perBankWrBursts::15                0                       # Per bank write bursts
system.mem_ctrls.numRdRetry                         0                       # Number of times read queue was full causing retry
system.mem_ctrls.numWrRetry                         0                       # Number of times write queue was full causing retry
system.mem_ctrls.totGap                  340263298500                       # Total gap between requests
system.mem_ctrls.readPktSize::0                     0                       # Read request sizes (log2)
system.mem_ctrls.readPktSize::1                     0                       # Read request sizes (log2)
system.mem_ctrls.readPktSize::2                     0                       # Read request sizes (log2)
system.mem_ctrls.readPktSize::3                     0                       # Read request sizes (log2)
system.mem_ctrls.readPktSize::4                     0                       # Read request sizes (log2)
system.mem_ctrls.readPktSize::5                 13449                       # Read request sizes (log2)
system.mem_ctrls.readPktSize::6                     0                       # Read request sizes (log2)
system.mem_ctrls.writePktSize::0                    0                       # Write request sizes (log2)
system.mem_ctrls.writePktSize::1                    0                       # Write request sizes (log2)
system.mem_ctrls.writePktSize::2                    0                       # Write request sizes (log2)
system.mem_ctrls.writePktSize::3                    0                       # Write request sizes (log2)
system.mem_ctrls.writePktSize::4                    0                       # Write request sizes (log2)
system.mem_ctrls.writePktSize::5                   24                       # Write request sizes (log2)
system.mem_ctrls.writePktSize::6                    0                       # Write request sizes (log2)
system.mem_ctrls.rdQLenPdf::0                   12180                       # What read queue length does an incoming req see
system.mem_ctrls.rdQLenPdf::1                     647                       # What read queue length does an incoming req see
system.mem_ctrls.rdQLenPdf::2                     617                       # What read queue length does an incoming req see
system.mem_ctrls.rdQLenPdf::3                       0                       # What read queue length does an incoming req see
system.mem_ctrls.rdQLenPdf::4                       0                       # What read queue length does an incoming req see
system.mem_ctrls.rdQLenPdf::5                       0                       # What read queue length does an incoming req see
system.mem_ctrls.rdQLenPdf::6                       0                       # What read queue length does an incoming req see
system.mem_ctrls.rdQLenPdf::7                       0                       # What read queue length does an incoming req see
system.mem_ctrls.rdQLenPdf::8                       0                       # What read queue length does an incoming req see
system.mem_ctrls.rdQLenPdf::9                       0                       # What read queue length does an incoming req see
system.mem_ctrls.rdQLenPdf::10                      0                       # What read queue length does an incoming req see
system.mem_ctrls.rdQLenPdf::11                      0                       # What read queue length does an incoming req see
system.mem_ctrls.rdQLenPdf::12                      0                       # What read queue length does an incoming req see
system.mem_ctrls.rdQLenPdf::13                      0                       # What read queue length does an incoming req see
system.mem_ctrls.rdQLenPdf::14                      0                       # What read queue length does an incoming req see
system.mem_ctrls.rdQLenPdf::15                      0                       # What read queue length does an incoming req see
system.mem_ctrls.rdQLenPdf::16                      0                       # What read queue length does an incoming req see
system.mem_ctrls.rdQLenPdf::17                      0                       # What read queue length does an incoming req see
system.mem_ctrls.rdQLenPdf::18                      0                       # What read queue length does an incoming req see
system.mem_ctrls.rdQLenPdf::19                      0                       # What read queue length does an incoming req see
system.mem_ctrls.rdQLenPdf::20                      0                       # What read queue length does an incoming req see
system.mem_ctrls.rdQLenPdf::21                      0                       # What read queue length does an incoming req see
system.mem_ctrls.rdQLenPdf::22                      0                       # What read queue length does an incoming req see
system.mem_ctrls.rdQLenPdf::23                      0                       # What read queue length does an incoming req see
system.mem_ctrls.rdQLenPdf::24                      0                       # What read queue length does an incoming req see
system.mem_ctrls.rdQLenPdf::25                      0                       # What read queue length does an incoming req see
system.mem_ctrls.rdQLenPdf::26                      0                       # What read queue length does an incoming req see
system.mem_ctrls.rdQLenPdf::27                      0                       # What read queue length does an incoming req see
system.mem_ctrls.rdQLenPdf::28                      0                       # What read queue length does an incoming req see
system.mem_ctrls.rdQLenPdf::29                      0                       # What read queue length does an incoming req see
system.mem_ctrls.rdQLenPdf::30                      0                       # What read queue length does an incoming req see
system.mem_ctrls.rdQLenPdf::31                      0                       # What read queue length does an incoming req see
system.mem_ctrls.wrQLenPdf::0                       1                       # What write queue length does an incoming req see
system.mem_ctrls.wrQLenPdf::1                       1                       # What write queue length does an incoming req see
system.mem_ctrls.wrQLenPdf::2                       1                       # What write queue length does an incoming req see
system.mem_ctrls.wrQLenPdf::3                       1                       # What write queue length does an incoming req see
system.mem_ctrls.wrQLenPdf::4                       1                       # What write queue length does an incoming req see
system.mem_ctrls.wrQLenPdf::5                       1                       # What write queue length does an incoming req see
system.mem_ctrls.wrQLenPdf::6                       1                       # What write queue length does an incoming req see
system.mem_ctrls.wrQLenPdf::7                       1                       # What write queue length does an incoming req see
system.mem_ctrls.wrQLenPdf::8                       1                       # What write queue length does an incoming req see
system.mem_ctrls.wrQLenPdf::9                       1                       # What write queue length does an incoming req see
system.mem_ctrls.wrQLenPdf::10                      1                       # What write queue length does an incoming req see
system.mem_ctrls.wrQLenPdf::11                      1                       # What write queue length does an incoming req see
system.mem_ctrls.wrQLenPdf::12                      1                       # What write queue length does an incoming req see
system.mem_ctrls.wrQLenPdf::13                      1                       # What write queue length does an incoming req see
system.mem_ctrls.wrQLenPdf::14                      1                       # What write queue length does an incoming req see
system.mem_ctrls.wrQLenPdf::15                      1                       # What write queue length does an incoming req see
system.mem_ctrls.wrQLenPdf::16                      1                       # What write queue length does an incoming req see
system.mem_ctrls.wrQLenPdf::17                      1                       # What write queue length does an incoming req see
system.mem_ctrls.wrQLenPdf::18                      1                       # What write queue length does an incoming req see
system.mem_ctrls.wrQLenPdf::19                      0                       # What write queue length does an incoming req see
system.mem_ctrls.wrQLenPdf::20                      0                       # What write queue length does an incoming req see
system.mem_ctrls.wrQLenPdf::21                      0                       # What write queue length does an incoming req see
system.mem_ctrls.wrQLenPdf::22                      0                       # What write queue length does an incoming req see
system.mem_ctrls.wrQLenPdf::23                      0                       # What write queue length does an incoming req see
system.mem_ctrls.wrQLenPdf::24                      0                       # What write queue length does an incoming req see
system.mem_ctrls.wrQLenPdf::25                      0                       # What write queue length does an incoming req see
system.mem_ctrls.wrQLenPdf::26                      0                       # What write queue length does an incoming req see
system.mem_ctrls.wrQLenPdf::27                      0                       # What write queue length does an incoming req see
system.mem_ctrls.wrQLenPdf::28                      0                       # What write queue length does an incoming req see
system.mem_ctrls.wrQLenPdf::29                      0                       # What write queue length does an incoming req see
system.mem_ctrls.wrQLenPdf::30                      0                       # What write queue length does an incoming req see
system.mem_ctrls.wrQLenPdf::31                      0                       # What write queue length does an incoming req see
system.mem_ctrls.wrQLenPdf::32                      0                       # What write queue length does an incoming req see
system.mem_ctrls.wrQLenPdf::33                      0                       # What write queue length does an incoming req see
system.mem_ctrls.wrQLenPdf::34                      0                       # What write queue length does an incoming req see
system.mem_ctrls.wrQLenPdf::35                      0                       # What write queue length does an incoming req see
system.mem_ctrls.wrQLenPdf::36                      0                       # What write queue length does an incoming req see
system.mem_ctrls.wrQLenPdf::37                      0                       # What write queue length does an incoming req see
system.mem_ctrls.wrQLenPdf::38                      0                       # What write queue length does an incoming req see
system.mem_ctrls.wrQLenPdf::39                      0                       # What write queue length does an incoming req see
system.mem_ctrls.wrQLenPdf::40                      0                       # What write queue length does an incoming req see
system.mem_ctrls.wrQLenPdf::41                      0                       # What write queue length does an incoming req see
system.mem_ctrls.wrQLenPdf::42                      0                       # What write queue length does an incoming req see
system.mem_ctrls.wrQLenPdf::43                      0                       # What write queue length does an incoming req see
system.mem_ctrls.wrQLenPdf::44                      0                       # What write queue length does an incoming req see
system.mem_ctrls.wrQLenPdf::45                      0                       # What write queue length does an incoming req see
system.mem_ctrls.wrQLenPdf::46                      0                       # What write queue length does an incoming req see
system.mem_ctrls.wrQLenPdf::47                      0                       # What write queue length does an incoming req see
system.mem_ctrls.wrQLenPdf::48                      0                       # What write queue length does an incoming req see
system.mem_ctrls.wrQLenPdf::49                      0                       # What write queue length does an incoming req see
system.mem_ctrls.wrQLenPdf::50                      0                       # What write queue length does an incoming req see
system.mem_ctrls.wrQLenPdf::51                      0                       # What write queue length does an incoming req see
system.mem_ctrls.wrQLenPdf::52                      0                       # What write queue length does an incoming req see
system.mem_ctrls.wrQLenPdf::53                      0                       # What write queue length does an incoming req see
system.mem_ctrls.wrQLenPdf::54                      0                       # What write queue length does an incoming req see
system.mem_ctrls.wrQLenPdf::55                      0                       # What write queue length does an incoming req see
system.mem_ctrls.wrQLenPdf::56                      0                       # What write queue length does an incoming req see
system.mem_ctrls.wrQLenPdf::57                      0                       # What write queue length does an incoming req see
system.mem_ctrls.wrQLenPdf::58                      0                       # What write queue length does an incoming req see
system.mem_ctrls.wrQLenPdf::59                      0                       # What write queue length does an incoming req see
system.mem_ctrls.wrQLenPdf::60                      0                       # What write queue length does an incoming req see
system.mem_ctrls.wrQLenPdf::61                      0                       # What write queue length does an incoming req see
system.mem_ctrls.wrQLenPdf::62                      0                       # What write queue length does an incoming req see
system.mem_ctrls.wrQLenPdf::63                      0                       # What write queue length does an incoming req see
system.mem_ctrls.bytesPerActivate::samples         3182                       # Bytes accessed per row activation
system.mem_ctrls.bytesPerActivate::mean    270.401006                       # Bytes accessed per row activation
system.mem_ctrls.bytesPerActivate::gmean   166.459682                       # Bytes accessed per row activation
system.mem_ctrls.bytesPerActivate::stdev   318.677206                       # Bytes accessed per row activation
system.mem_ctrls.bytesPerActivate::0-127          752     23.63%     23.63% # Bytes accessed per row activation
system.mem_ctrls.bytesPerActivate::128-255         1643     51.63%     75.27% # Bytes accessed per row activation
system.mem_ctrls.bytesPerActivate::256-383          139      4.37%     79.64% # Bytes accessed per row activation
system.mem_ctrls.bytesPerActivate::384-511           92      2.89%     82.53% # Bytes accessed per row activation
system.mem_ctrls.bytesPerActivate::512-639           54      1.70%     84.22% # Bytes accessed per row activation
system.mem_ctrls.bytesPerActivate::640-767           44      1.38%     85.61% # Bytes accessed per row activation
system.mem_ctrls.bytesPerActivate::768-895           34      1.07%     86.68% # Bytes accessed per row activation
system.mem_ctrls.bytesPerActivate::896-1023           30      0.94%     87.62% # Bytes accessed per row activation
system.mem_ctrls.bytesPerActivate::1024-1151          394     12.38%    100.00% # Bytes accessed per row activation
system.mem_ctrls.bytesPerActivate::total         3182                       # Bytes accessed per row activation
system.mem_ctrls.totQLat                     95579000                       # Total ticks spent queuing
system.mem_ctrls.totMemAccLat               347654000                       # Total ticks spent from burst creation until serviced by the DRAM
system.mem_ctrls.totBusLat                   67220000                       # Total ticks spent in databus transfers
system.mem_ctrls.avgQLat                      7109.42                       # Average queueing delay per DRAM burst
system.mem_ctrls.avgBusLat                    5000.00                       # Average bus latency per DRAM burst
system.mem_ctrls.avgMemAccLat                25859.42                       # Average memory access latency per DRAM burst
system.mem_ctrls.avgRdBW                         0.90                       # Average DRAM read bandwidth in MiByte/s
system.mem_ctrls.avgWrBW                         0.00                       # Average achieved write bandwidth in MiByte/s
system.mem_ctrls.avgRdBWSys                      0.45                       # Average system read bandwidth in MiByte/s
system.mem_ctrls.avgWrBWSys                      0.00                       # Average system write bandwidth in MiByte/s
system.mem_ctrls.peakBW                      12800.00                       # Theoretical peak bandwidth in MiByte/s
system.mem_ctrls.busUtil                         0.01                       # Data bus utilization in percentage
system.mem_ctrls.busUtilRead                     0.01                       # Data bus utilization in percentage for reads
system.mem_ctrls.busUtilWrite                    0.00                       # Data bus utilization in percentage for writes
system.mem_ctrls.avgRdQLen                       1.00                       # Average read queue length when enqueuing
system.mem_ctrls.avgWrQLen                      17.83                       # Average write queue length when enqueuing
system.mem_ctrls.readRowHits                    10262                       # Number of row buffer hits during reads
system.mem_ctrls.writeRowHits                       0                       # Number of row buffer hits during writes
system.mem_ctrls.readRowHitRate                 76.33                       # Row buffer hit rate for reads
system.mem_ctrls.writeRowHitRate                 0.00                       # Row buffer hit rate for writes
system.mem_ctrls.avgGap                   25255199.18                       # Average gap between requests
system.mem_ctrls.pageHitRate                    76.22                       # Row buffer hit rate, read and write combined
system.mem_ctrls_0.actEnergy                 10795680                       # Energy for activate commands per rank (pJ)
system.mem_ctrls_0.preEnergy                  5890500                       # Energy for precharge commands per rank (pJ)
system.mem_ctrls_0.readEnergy                45450600                       # Energy for read commands per rank (pJ)
system.mem_ctrls_0.writeEnergy                      0                       # Energy for write commands per rank (pJ)
system.mem_ctrls_0.refreshEnergy          62331147840                       # Energy for refresh commands per rank (pJ)
system.mem_ctrls_0.actBackEnergy          23486241240                       # Energy for active background per rank (pJ)
system.mem_ctrls_0.preBackEnergy         551986548750                       # Energy for precharge background per rank (pJ)
system.mem_ctrls_0.totalEnergy           637866074610                       # Total energy per rank (pJ)
system.mem_ctrls_0.averagePower            668.402587                       # Core power per rank (mW)
system.mem_ctrls_0.memoryStateTime::IDLE 918280254500                       # Time in different power states
system.mem_ctrls_0.memoryStateTime::REF   31866640000                       # Time in different power states
system.mem_ctrls_0.memoryStateTime::PRE_PDN            0                       # Time in different power states
system.mem_ctrls_0.memoryStateTime::ACT    4167310500                       # Time in different power states
system.mem_ctrls_0.memoryStateTime::ACT_PDN            0                       # Time in different power states
system.mem_ctrls_1.actEnergy                 13260240                       # Energy for activate commands per rank (pJ)
system.mem_ctrls_1.preEnergy                  7235250                       # Energy for precharge commands per rank (pJ)
system.mem_ctrls_1.readEnergy                59412600                       # Energy for read commands per rank (pJ)
system.mem_ctrls_1.writeEnergy                      0                       # Energy for write commands per rank (pJ)
system.mem_ctrls_1.refreshEnergy          62331147840                       # Energy for refresh commands per rank (pJ)
system.mem_ctrls_1.actBackEnergy          23866244280                       # Energy for active background per rank (pJ)
system.mem_ctrls_1.preBackEnergy         551653212750                       # Energy for precharge background per rank (pJ)
system.mem_ctrls_1.totalEnergy           637930512960                       # Total energy per rank (pJ)
system.mem_ctrls_1.averagePower            668.470111                       # Core power per rank (mW)
system.mem_ctrls_1.memoryStateTime::IDLE 917723880750                       # Time in different power states
system.mem_ctrls_1.memoryStateTime::REF   31866640000                       # Time in different power states
system.mem_ctrls_1.memoryStateTime::PRE_PDN            0                       # Time in different power states
system.mem_ctrls_1.memoryStateTime::ACT    4723684250                       # Time in different power states
system.mem_ctrls_1.memoryStateTime::ACT_PDN            0                       # Time in different power states
system.cpu_voltage_domain.voltage                   1                       # Voltage in Volts
system.cpu_clk_domain.clock                       500                       # Clock period in ticks
system.cpu.apic_clk_domain.clock                 8000                       # Clock period in ticks
system.cpu.workload.num_syscalls                   35                       # Number of system calls
system.cpu.numCycles                       1908636797                       # number of cpu cycles simulated
system.cpu.numWorkItemsStarted                      0                       # number of work items this cpu started
system.cpu.numWorkItemsCompleted                    0                       # number of work items this cpu completed
system.cpu.committedInsts                   500000000                       # Number of instructions committed
system.cpu.committedOps                     644895733                       # Number of ops (including micro ops) committed
system.cpu.num_int_alu_accesses             625873233                       # Number of integer alu accesses
system.cpu.num_fp_alu_accesses               27676254                       # Number of float alu accesses
system.cpu.num_func_calls                     1531165                       # number of times a function call or return occured
system.cpu.num_conditional_control_insts     25302281                       # number of instructions that are conditional controls
system.cpu.num_int_insts                    625873233                       # number of integer instructions
system.cpu.num_fp_insts                      27676254                       # number of float instructions
system.cpu.num_int_register_reads          1467548657                       # number of times the integer registers were read
system.cpu.num_int_register_writes          569494356                       # number of times the integer registers were written
system.cpu.num_fp_register_reads             21879879                       # number of times the floating registers were read
system.cpu.num_fp_register_writes            23672685                       # number of times the floating registers were written
system.cpu.num_cc_register_reads            187332012                       # number of times the CC registers were read
system.cpu.num_cc_register_writes           260734382                       # number of times the CC registers were written
system.cpu.num_mem_refs                     254894307                       # number of memory refs
system.cpu.num_load_insts                   219204129                       # Number of load instructions
system.cpu.num_store_insts                   35690178                       # Number of store instructions
system.cpu.num_idle_cycles                          0                       # Number of idle cycles
system.cpu.num_busy_cycles                 1908636797                       # Number of busy cycles
system.cpu.not_idle_fraction                        1                       # Percentage of non-idle cycles
system.cpu.idle_fraction                            0                       # Percentage of idle cycles
system.cpu.Branches                          27605108                       # Number of branches fetched
system.cpu.op_class::No_OpClass               1502715      0.23%      0.23% # Class of executed instruction
system.cpu.op_class::IntAlu                 363720567     56.40%     56.63% # Class of executed instruction
system.cpu.op_class::IntMult                   618823      0.10%     56.73% # Class of executed instruction
system.cpu.op_class::IntDiv                   6323450      0.98%     57.71% # Class of executed instruction
system.cpu.op_class::FloatAdd                17835871      2.77%     60.48% # Class of executed instruction
system.cpu.op_class::FloatCmp                       0      0.00%     60.48% # Class of executed instruction
system.cpu.op_class::FloatCvt                       0      0.00%     60.48% # Class of executed instruction
system.cpu.op_class::FloatMult                      0      0.00%     60.48% # Class of executed instruction
system.cpu.op_class::FloatDiv                       0      0.00%     60.48% # Class of executed instruction
system.cpu.op_class::FloatSqrt                      0      0.00%     60.48% # Class of executed instruction
system.cpu.op_class::SimdAdd                        0      0.00%     60.48% # Class of executed instruction
system.cpu.op_class::SimdAddAcc                     0      0.00%     60.48% # Class of executed instruction
system.cpu.op_class::SimdAlu                        0      0.00%     60.48% # Class of executed instruction
system.cpu.op_class::SimdCmp                        0      0.00%     60.48% # Class of executed instruction
system.cpu.op_class::SimdCvt                        0      0.00%     60.48% # Class of executed instruction
system.cpu.op_class::SimdMisc                       0      0.00%     60.48% # Class of executed instruction
system.cpu.op_class::SimdMult                       0      0.00%     60.48% # Class of executed instruction
system.cpu.op_class::SimdMultAcc                    0      0.00%     60.48% # Class of executed instruction
system.cpu.op_class::SimdShift                      0      0.00%     60.48% # Class of executed instruction
system.cpu.op_class::SimdShiftAcc                   0      0.00%     60.48% # Class of executed instruction
system.cpu.op_class::SimdSqrt                       0      0.00%     60.48% # Class of executed instruction
system.cpu.op_class::SimdFloatAdd                   0      0.00%     60.48% # Class of executed instruction
system.cpu.op_class::SimdFloatAlu                   0      0.00%     60.48% # Class of executed instruction
system.cpu.op_class::SimdFloatCmp                   0      0.00%     60.48% # Class of executed instruction
system.cpu.op_class::SimdFloatCvt                   0      0.00%     60.48% # Class of executed instruction
system.cpu.op_class::SimdFloatDiv                   0      0.00%     60.48% # Class of executed instruction
system.cpu.op_class::SimdFloatMisc                  0      0.00%     60.48% # Class of executed instruction
system.cpu.op_class::SimdFloatMult                  0      0.00%     60.48% # Class of executed instruction
system.cpu.op_class::SimdFloatMultAcc               0      0.00%     60.48% # Class of executed instruction
system.cpu.op_class::SimdFloatSqrt                  0      0.00%     60.48% # Class of executed instruction
system.cpu.op_class::MemRead                219204129     33.99%     94.47% # Class of executed instruction
system.cpu.op_class::MemWrite                35690178      5.53%    100.00% # Class of executed instruction
system.cpu.op_class::IprAccess                      0      0.00%    100.00% # Class of executed instruction
system.cpu.op_class::InstPrefetch                   0      0.00%    100.00% # Class of executed instruction
system.cpu.op_class::total                  644895733                       # Class of executed instruction
system.cpu.dcache.tags.replacements            202330                       # number of replacements
system.cpu.dcache.tags.tagsinuse          4087.968653                       # Cycle average of tags in use
system.cpu.dcache.tags.total_refs           254689490                       # Total number of references to valid blocks.
system.cpu.dcache.tags.sampled_refs            206426                       # Sample count of references to valid blocks.
system.cpu.dcache.tags.avg_refs           1233.805286                       # Average number of references to valid blocks.
system.cpu.dcache.tags.warmup_cycle        8494364500                       # Cycle when the warmup percentage was hit.
system.cpu.dcache.tags.occ_blocks::cpu.data  4087.968653                       # Average occupied blocks per requestor
system.cpu.dcache.tags.occ_percent::cpu.data     0.998039                       # Average percentage of cache occupancy
system.cpu.dcache.tags.occ_percent::total     0.998039                       # Average percentage of cache occupancy
system.cpu.dcache.tags.occ_task_id_blocks::1024         4096                       # Occupied blocks per task id
system.cpu.dcache.tags.age_task_id_blocks_1024::0            1                       # Occupied blocks per task id
system.cpu.dcache.tags.age_task_id_blocks_1024::2           18                       # Occupied blocks per task id
system.cpu.dcache.tags.age_task_id_blocks_1024::3         1514                       # Occupied blocks per task id
system.cpu.dcache.tags.age_task_id_blocks_1024::4         2563                       # Occupied blocks per task id
system.cpu.dcache.tags.occ_task_id_percent::1024            1                       # Percentage of cache occupancy per task id
system.cpu.dcache.tags.tag_accesses        2039373754                       # Number of tag accesses
system.cpu.dcache.tags.data_accesses       2039373754                       # Number of data accesses
system.cpu.dcache.ReadReq_hits::cpu.data    219155015                       # number of ReadReq hits
system.cpu.dcache.ReadReq_hits::total       219155015                       # number of ReadReq hits
system.cpu.dcache.WriteReq_hits::cpu.data     35532764                       # number of WriteReq hits
system.cpu.dcache.WriteReq_hits::total       35532764                       # number of WriteReq hits
system.cpu.dcache.SoftPFReq_hits::cpu.data         1711                       # number of SoftPFReq hits
system.cpu.dcache.SoftPFReq_hits::total          1711                       # number of SoftPFReq hits
system.cpu.dcache.demand_hits::cpu.data     254687779                       # number of demand (read+write) hits
system.cpu.dcache.demand_hits::total        254687779                       # number of demand (read+write) hits
system.cpu.dcache.overall_hits::cpu.data    254689490                       # number of overall hits
system.cpu.dcache.overall_hits::total       254689490                       # number of overall hits
system.cpu.dcache.ReadReq_misses::cpu.data        44510                       # number of ReadReq misses
system.cpu.dcache.ReadReq_misses::total         44510                       # number of ReadReq misses
system.cpu.dcache.WriteReq_misses::cpu.data       157509                       # number of WriteReq misses
system.cpu.dcache.WriteReq_misses::total       157509                       # number of WriteReq misses
system.cpu.dcache.SoftPFReq_misses::cpu.data         4407                       # number of SoftPFReq misses
system.cpu.dcache.SoftPFReq_misses::total         4407                       # number of SoftPFReq misses
system.cpu.dcache.demand_misses::cpu.data       202019                       # number of demand (read+write) misses
system.cpu.dcache.demand_misses::total         202019                       # number of demand (read+write) misses
system.cpu.dcache.overall_misses::cpu.data       206426                       # number of overall misses
system.cpu.dcache.overall_misses::total        206426                       # number of overall misses
system.cpu.dcache.ReadReq_miss_latency::cpu.data    656227000                       # number of ReadReq miss cycles
system.cpu.dcache.ReadReq_miss_latency::total    656227000                       # number of ReadReq miss cycles
system.cpu.dcache.WriteReq_miss_latency::cpu.data   2618441500                       # number of WriteReq miss cycles
system.cpu.dcache.WriteReq_miss_latency::total   2618441500                       # number of WriteReq miss cycles
system.cpu.dcache.demand_miss_latency::cpu.data   3274668500                       # number of demand (read+write) miss cycles
system.cpu.dcache.demand_miss_latency::total   3274668500                       # number of demand (read+write) miss cycles
system.cpu.dcache.overall_miss_latency::cpu.data   3274668500                       # number of overall miss cycles
system.cpu.dcache.overall_miss_latency::total   3274668500                       # number of overall miss cycles
system.cpu.dcache.ReadReq_accesses::cpu.data    219199525                       # number of ReadReq accesses(hits+misses)
system.cpu.dcache.ReadReq_accesses::total    219199525                       # number of ReadReq accesses(hits+misses)
system.cpu.dcache.WriteReq_accesses::cpu.data     35690273                       # number of WriteReq accesses(hits+misses)
system.cpu.dcache.WriteReq_accesses::total     35690273                       # number of WriteReq accesses(hits+misses)
system.cpu.dcache.SoftPFReq_accesses::cpu.data         6118                       # number of SoftPFReq accesses(hits+misses)
system.cpu.dcache.SoftPFReq_accesses::total         6118                       # number of SoftPFReq accesses(hits+misses)
system.cpu.dcache.demand_accesses::cpu.data    254889798                       # number of demand (read+write) accesses
system.cpu.dcache.demand_accesses::total    254889798                       # number of demand (read+write) accesses
system.cpu.dcache.overall_accesses::cpu.data    254895916                       # number of overall (read+write) accesses
system.cpu.dcache.overall_accesses::total    254895916                       # number of overall (read+write) accesses
system.cpu.dcache.ReadReq_miss_rate::cpu.data     0.000203                       # miss rate for ReadReq accesses
system.cpu.dcache.ReadReq_miss_rate::total     0.000203                       # miss rate for ReadReq accesses
system.cpu.dcache.WriteReq_miss_rate::cpu.data     0.004413                       # miss rate for WriteReq accesses
system.cpu.dcache.WriteReq_miss_rate::total     0.004413                       # miss rate for WriteReq accesses
system.cpu.dcache.SoftPFReq_miss_rate::cpu.data     0.720333                       # miss rate for SoftPFReq accesses
system.cpu.dcache.SoftPFReq_miss_rate::total     0.720333                       # miss rate for SoftPFReq accesses
system.cpu.dcache.demand_miss_rate::cpu.data     0.000793                       # miss rate for demand accesses
system.cpu.dcache.demand_miss_rate::total     0.000793                       # miss rate for demand accesses
system.cpu.dcache.overall_miss_rate::cpu.data     0.000810                       # miss rate for overall accesses
system.cpu.dcache.overall_miss_rate::total     0.000810                       # miss rate for overall accesses
system.cpu.dcache.ReadReq_avg_miss_latency::cpu.data 14743.361042                       # average ReadReq miss latency
system.cpu.dcache.ReadReq_avg_miss_latency::total 14743.361042                       # average ReadReq miss latency
system.cpu.dcache.WriteReq_avg_miss_latency::cpu.data 16624.075450                       # average WriteReq miss latency
system.cpu.dcache.WriteReq_avg_miss_latency::total 16624.075450                       # average WriteReq miss latency
system.cpu.dcache.demand_avg_miss_latency::cpu.data 16209.705523                       # average overall miss latency
system.cpu.dcache.demand_avg_miss_latency::total 16209.705523                       # average overall miss latency
system.cpu.dcache.overall_avg_miss_latency::cpu.data 15863.643630                       # average overall miss latency
system.cpu.dcache.overall_avg_miss_latency::total 15863.643630                       # average overall miss latency
system.cpu.dcache.blocked_cycles::no_mshrs           14                       # number of cycles access was blocked
system.cpu.dcache.blocked_cycles::no_targets            0                       # number of cycles access was blocked
system.cpu.dcache.blocked::no_mshrs                 1                       # number of cycles access was blocked
system.cpu.dcache.blocked::no_targets               0                       # number of cycles access was blocked
system.cpu.dcache.avg_blocked_cycles::no_mshrs           14                       # average number of cycles each access was blocked
system.cpu.dcache.avg_blocked_cycles::no_targets          nan                       # average number of cycles each access was blocked
system.cpu.dcache.fast_writes                       0                       # number of fast writes performed
system.cpu.dcache.cache_copies                      0                       # number of cache copies performed
system.cpu.dcache.writebacks::writebacks       199306                       # number of writebacks
system.cpu.dcache.writebacks::total            199306                       # number of writebacks
system.cpu.dcache.ReadReq_mshr_misses::cpu.data        44510                       # number of ReadReq MSHR misses
system.cpu.dcache.ReadReq_mshr_misses::total        44510                       # number of ReadReq MSHR misses
system.cpu.dcache.WriteReq_mshr_misses::cpu.data       157509                       # number of WriteReq MSHR misses
system.cpu.dcache.WriteReq_mshr_misses::total       157509                       # number of WriteReq MSHR misses
system.cpu.dcache.SoftPFReq_mshr_misses::cpu.data         4407                       # number of SoftPFReq MSHR misses
system.cpu.dcache.SoftPFReq_mshr_misses::total         4407                       # number of SoftPFReq MSHR misses
system.cpu.dcache.demand_mshr_misses::cpu.data       202019                       # number of demand (read+write) MSHR misses
system.cpu.dcache.demand_mshr_misses::total       202019                       # number of demand (read+write) MSHR misses
system.cpu.dcache.overall_mshr_misses::cpu.data       206426                       # number of overall MSHR misses
system.cpu.dcache.overall_mshr_misses::total       206426                       # number of overall MSHR misses
system.cpu.dcache.ReadReq_mshr_miss_latency::cpu.data    611717000                       # number of ReadReq MSHR miss cycles
system.cpu.dcache.ReadReq_mshr_miss_latency::total    611717000                       # number of ReadReq MSHR miss cycles
system.cpu.dcache.WriteReq_mshr_miss_latency::cpu.data   2460932500                       # number of WriteReq MSHR miss cycles
system.cpu.dcache.WriteReq_mshr_miss_latency::total   2460932500                       # number of WriteReq MSHR miss cycles
system.cpu.dcache.SoftPFReq_mshr_miss_latency::cpu.data    135565500                       # number of SoftPFReq MSHR miss cycles
system.cpu.dcache.SoftPFReq_mshr_miss_latency::total    135565500                       # number of SoftPFReq MSHR miss cycles
system.cpu.dcache.demand_mshr_miss_latency::cpu.data   3072649500                       # number of demand (read+write) MSHR miss cycles
system.cpu.dcache.demand_mshr_miss_latency::total   3072649500                       # number of demand (read+write) MSHR miss cycles
system.cpu.dcache.overall_mshr_miss_latency::cpu.data   3208215000                       # number of overall MSHR miss cycles
system.cpu.dcache.overall_mshr_miss_latency::total   3208215000                       # number of overall MSHR miss cycles
system.cpu.dcache.ReadReq_mshr_miss_rate::cpu.data     0.000203                       # mshr miss rate for ReadReq accesses
system.cpu.dcache.ReadReq_mshr_miss_rate::total     0.000203                       # mshr miss rate for ReadReq accesses
system.cpu.dcache.WriteReq_mshr_miss_rate::cpu.data     0.004413                       # mshr miss rate for WriteReq accesses
system.cpu.dcache.WriteReq_mshr_miss_rate::total     0.004413                       # mshr miss rate for WriteReq accesses
system.cpu.dcache.SoftPFReq_mshr_miss_rate::cpu.data     0.720333                       # mshr miss rate for SoftPFReq accesses
system.cpu.dcache.SoftPFReq_mshr_miss_rate::total     0.720333                       # mshr miss rate for SoftPFReq accesses
system.cpu.dcache.demand_mshr_miss_rate::cpu.data     0.000793                       # mshr miss rate for demand accesses
system.cpu.dcache.demand_mshr_miss_rate::total     0.000793                       # mshr miss rate for demand accesses
system.cpu.dcache.overall_mshr_miss_rate::cpu.data     0.000810                       # mshr miss rate for overall accesses
system.cpu.dcache.overall_mshr_miss_rate::total     0.000810                       # mshr miss rate for overall accesses
system.cpu.dcache.ReadReq_avg_mshr_miss_latency::cpu.data 13743.361042                       # average ReadReq mshr miss latency
system.cpu.dcache.ReadReq_avg_mshr_miss_latency::total 13743.361042                       # average ReadReq mshr miss latency
system.cpu.dcache.WriteReq_avg_mshr_miss_latency::cpu.data 15624.075450                       # average WriteReq mshr miss latency
system.cpu.dcache.WriteReq_avg_mshr_miss_latency::total 15624.075450                       # average WriteReq mshr miss latency
system.cpu.dcache.SoftPFReq_avg_mshr_miss_latency::cpu.data 30761.402314                       # average SoftPFReq mshr miss latency
system.cpu.dcache.SoftPFReq_avg_mshr_miss_latency::total 30761.402314                       # average SoftPFReq mshr miss latency
system.cpu.dcache.demand_avg_mshr_miss_latency::cpu.data 15209.705523                       # average overall mshr miss latency
system.cpu.dcache.demand_avg_mshr_miss_latency::total 15209.705523                       # average overall mshr miss latency
system.cpu.dcache.overall_avg_mshr_miss_latency::cpu.data 15541.719551                       # average overall mshr miss latency
system.cpu.dcache.overall_avg_mshr_miss_latency::total 15541.719551                       # average overall mshr miss latency
system.cpu.dcache.no_allocate_misses                0                       # Number of misses that were no-allocate
system.cpu.dtb_walker_cache.tags.replacements            0                       # number of replacements
system.cpu.dtb_walker_cache.tags.tagsinuse            0                       # Cycle average of tags in use
system.cpu.dtb_walker_cache.tags.total_refs            0                       # Total number of references to valid blocks.
system.cpu.dtb_walker_cache.tags.sampled_refs            0                       # Sample count of references to valid blocks.
system.cpu.dtb_walker_cache.tags.avg_refs          nan                       # Average number of references to valid blocks.
system.cpu.dtb_walker_cache.tags.warmup_cycle            0                       # Cycle when the warmup percentage was hit.
system.cpu.dtb_walker_cache.tags.tag_accesses            0                       # Number of tag accesses
system.cpu.dtb_walker_cache.tags.data_accesses            0                       # Number of data accesses
system.cpu.dtb_walker_cache.blocked_cycles::no_mshrs            0                       # number of cycles access was blocked
system.cpu.dtb_walker_cache.blocked_cycles::no_targets            0                       # number of cycles access was blocked
system.cpu.dtb_walker_cache.blocked::no_mshrs            0                       # number of cycles access was blocked
system.cpu.dtb_walker_cache.blocked::no_targets            0                       # number of cycles access was blocked
system.cpu.dtb_walker_cache.avg_blocked_cycles::no_mshrs          nan                       # average number of cycles each access was blocked
system.cpu.dtb_walker_cache.avg_blocked_cycles::no_targets          nan                       # average number of cycles each access was blocked
system.cpu.dtb_walker_cache.fast_writes             0                       # number of fast writes performed
system.cpu.dtb_walker_cache.cache_copies            0                       # number of cache copies performed
system.cpu.dtb_walker_cache.no_allocate_misses            0                       # Number of misses that were no-allocate
system.cpu.icache.tags.replacements             17489                       # number of replacements
system.cpu.icache.tags.tagsinuse          1445.880320                       # Cycle average of tags in use
system.cpu.icache.tags.total_refs           695959128                       # Total number of references to valid blocks.
system.cpu.icache.tags.sampled_refs             18937                       # Sample count of references to valid blocks.
system.cpu.icache.tags.avg_refs          36751.287321                       # Average number of references to valid blocks.
system.cpu.icache.tags.warmup_cycle                 0                       # Cycle when the warmup percentage was hit.
system.cpu.icache.tags.occ_blocks::cpu.inst  1445.880320                       # Average occupied blocks per requestor
system.cpu.icache.tags.occ_percent::cpu.inst     0.705996                       # Average percentage of cache occupancy
system.cpu.icache.tags.occ_percent::total     0.705996                       # Average percentage of cache occupancy
system.cpu.icache.tags.occ_task_id_blocks::1024         1448                       # Occupied blocks per task id
system.cpu.icache.tags.age_task_id_blocks_1024::2           19                       # Occupied blocks per task id
system.cpu.icache.tags.age_task_id_blocks_1024::3            2                       # Occupied blocks per task id
system.cpu.icache.tags.age_task_id_blocks_1024::4         1427                       # Occupied blocks per task id
system.cpu.icache.tags.occ_task_id_percent::1024     0.707031                       # Percentage of cache occupancy per task id
system.cpu.icache.tags.tag_accesses         695997002                       # Number of tag accesses
system.cpu.icache.tags.data_accesses        695997002                       # Number of data accesses
system.cpu.icache.ReadReq_hits::cpu.inst    695959128                       # number of ReadReq hits
system.cpu.icache.ReadReq_hits::total       695959128                       # number of ReadReq hits
system.cpu.icache.demand_hits::cpu.inst     695959128                       # number of demand (read+write) hits
system.cpu.icache.demand_hits::total        695959128                       # number of demand (read+write) hits
system.cpu.icache.overall_hits::cpu.inst    695959128                       # number of overall hits
system.cpu.icache.overall_hits::total       695959128                       # number of overall hits
system.cpu.icache.ReadReq_misses::cpu.inst        18937                       # number of ReadReq misses
system.cpu.icache.ReadReq_misses::total         18937                       # number of ReadReq misses
system.cpu.icache.demand_misses::cpu.inst        18937                       # number of demand (read+write) misses
system.cpu.icache.demand_misses::total          18937                       # number of demand (read+write) misses
system.cpu.icache.overall_misses::cpu.inst        18937                       # number of overall misses
system.cpu.icache.overall_misses::total         18937                       # number of overall misses
system.cpu.icache.ReadReq_miss_latency::cpu.inst    391518000                       # number of ReadReq miss cycles
system.cpu.icache.ReadReq_miss_latency::total    391518000                       # number of ReadReq miss cycles
system.cpu.icache.demand_miss_latency::cpu.inst    391518000                       # number of demand (read+write) miss cycles
system.cpu.icache.demand_miss_latency::total    391518000                       # number of demand (read+write) miss cycles
system.cpu.icache.overall_miss_latency::cpu.inst    391518000                       # number of overall miss cycles
system.cpu.icache.overall_miss_latency::total    391518000                       # number of overall miss cycles
system.cpu.icache.ReadReq_accesses::cpu.inst    695978065                       # number of ReadReq accesses(hits+misses)
system.cpu.icache.ReadReq_accesses::total    695978065                       # number of ReadReq accesses(hits+misses)
system.cpu.icache.demand_accesses::cpu.inst    695978065                       # number of demand (read+write) accesses
system.cpu.icache.demand_accesses::total    695978065                       # number of demand (read+write) accesses
system.cpu.icache.overall_accesses::cpu.inst    695978065                       # number of overall (read+write) accesses
system.cpu.icache.overall_accesses::total    695978065                       # number of overall (read+write) accesses
system.cpu.icache.ReadReq_miss_rate::cpu.inst     0.000027                       # miss rate for ReadReq accesses
system.cpu.icache.ReadReq_miss_rate::total     0.000027                       # miss rate for ReadReq accesses
system.cpu.icache.demand_miss_rate::cpu.inst     0.000027                       # miss rate for demand accesses
system.cpu.icache.demand_miss_rate::total     0.000027                       # miss rate for demand accesses
system.cpu.icache.overall_miss_rate::cpu.inst     0.000027                       # miss rate for overall accesses
system.cpu.icache.overall_miss_rate::total     0.000027                       # miss rate for overall accesses
system.cpu.icache.ReadReq_avg_miss_latency::cpu.inst 20674.763690                       # average ReadReq miss latency
system.cpu.icache.ReadReq_avg_miss_latency::total 20674.763690                       # average ReadReq miss latency
system.cpu.icache.demand_avg_miss_latency::cpu.inst 20674.763690                       # average overall miss latency
system.cpu.icache.demand_avg_miss_latency::total 20674.763690                       # average overall miss latency
system.cpu.icache.overall_avg_miss_latency::cpu.inst 20674.763690                       # average overall miss latency
system.cpu.icache.overall_avg_miss_latency::total 20674.763690                       # average overall miss latency
system.cpu.icache.blocked_cycles::no_mshrs            0                       # number of cycles access was blocked
system.cpu.icache.blocked_cycles::no_targets            0                       # number of cycles access was blocked
system.cpu.icache.blocked::no_mshrs                 0                       # number of cycles access was blocked
system.cpu.icache.blocked::no_targets               0                       # number of cycles access was blocked
system.cpu.icache.avg_blocked_cycles::no_mshrs          nan                       # average number of cycles each access was blocked
system.cpu.icache.avg_blocked_cycles::no_targets          nan                       # average number of cycles each access was blocked
system.cpu.icache.fast_writes                       0                       # number of fast writes performed
system.cpu.icache.cache_copies                      0                       # number of cache copies performed
system.cpu.icache.writebacks::writebacks        17489                       # number of writebacks
system.cpu.icache.writebacks::total             17489                       # number of writebacks
system.cpu.icache.ReadReq_mshr_misses::cpu.inst        18937                       # number of ReadReq MSHR misses
system.cpu.icache.ReadReq_mshr_misses::total        18937                       # number of ReadReq MSHR misses
system.cpu.icache.demand_mshr_misses::cpu.inst        18937                       # number of demand (read+write) MSHR misses
system.cpu.icache.demand_mshr_misses::total        18937                       # number of demand (read+write) MSHR misses
system.cpu.icache.overall_mshr_misses::cpu.inst        18937                       # number of overall MSHR misses
system.cpu.icache.overall_mshr_misses::total        18937                       # number of overall MSHR misses
system.cpu.icache.ReadReq_mshr_miss_latency::cpu.inst    372581000                       # number of ReadReq MSHR miss cycles
system.cpu.icache.ReadReq_mshr_miss_latency::total    372581000                       # number of ReadReq MSHR miss cycles
system.cpu.icache.demand_mshr_miss_latency::cpu.inst    372581000                       # number of demand (read+write) MSHR miss cycles
system.cpu.icache.demand_mshr_miss_latency::total    372581000                       # number of demand (read+write) MSHR miss cycles
system.cpu.icache.overall_mshr_miss_latency::cpu.inst    372581000                       # number of overall MSHR miss cycles
system.cpu.icache.overall_mshr_miss_latency::total    372581000                       # number of overall MSHR miss cycles
system.cpu.icache.ReadReq_mshr_miss_rate::cpu.inst     0.000027                       # mshr miss rate for ReadReq accesses
system.cpu.icache.ReadReq_mshr_miss_rate::total     0.000027                       # mshr miss rate for ReadReq accesses
system.cpu.icache.demand_mshr_miss_rate::cpu.inst     0.000027                       # mshr miss rate for demand accesses
system.cpu.icache.demand_mshr_miss_rate::total     0.000027                       # mshr miss rate for demand accesses
system.cpu.icache.overall_mshr_miss_rate::cpu.inst     0.000027                       # mshr miss rate for overall accesses
system.cpu.icache.overall_mshr_miss_rate::total     0.000027                       # mshr miss rate for overall accesses
system.cpu.icache.ReadReq_avg_mshr_miss_latency::cpu.inst 19674.763690                       # average ReadReq mshr miss latency
system.cpu.icache.ReadReq_avg_mshr_miss_latency::total 19674.763690                       # average ReadReq mshr miss latency
system.cpu.icache.demand_avg_mshr_miss_latency::cpu.inst 19674.763690                       # average overall mshr miss latency
system.cpu.icache.demand_avg_mshr_miss_latency::total 19674.763690                       # average overall mshr miss latency
system.cpu.icache.overall_avg_mshr_miss_latency::cpu.inst 19674.763690                       # average overall mshr miss latency
system.cpu.icache.overall_avg_mshr_miss_latency::total 19674.763690                       # average overall mshr miss latency
system.cpu.icache.no_allocate_misses                0                       # Number of misses that were no-allocate
system.cpu.itb_walker_cache.tags.replacements            0                       # number of replacements
system.cpu.itb_walker_cache.tags.tagsinuse            0                       # Cycle average of tags in use
system.cpu.itb_walker_cache.tags.total_refs            0                       # Total number of references to valid blocks.
system.cpu.itb_walker_cache.tags.sampled_refs            0                       # Sample count of references to valid blocks.
system.cpu.itb_walker_cache.tags.avg_refs          nan                       # Average number of references to valid blocks.
system.cpu.itb_walker_cache.tags.warmup_cycle            0                       # Cycle when the warmup percentage was hit.
system.cpu.itb_walker_cache.tags.tag_accesses            0                       # Number of tag accesses
system.cpu.itb_walker_cache.tags.data_accesses            0                       # Number of data accesses
system.cpu.itb_walker_cache.blocked_cycles::no_mshrs            0                       # number of cycles access was blocked
system.cpu.itb_walker_cache.blocked_cycles::no_targets            0                       # number of cycles access was blocked
system.cpu.itb_walker_cache.blocked::no_mshrs            0                       # number of cycles access was blocked
system.cpu.itb_walker_cache.blocked::no_targets            0                       # number of cycles access was blocked
system.cpu.itb_walker_cache.avg_blocked_cycles::no_mshrs          nan                       # average number of cycles each access was blocked
system.cpu.itb_walker_cache.avg_blocked_cycles::no_targets          nan                       # average number of cycles each access was blocked
system.cpu.itb_walker_cache.fast_writes             0                       # number of fast writes performed
system.cpu.itb_walker_cache.cache_copies            0                       # number of cache copies performed
system.cpu.itb_walker_cache.no_allocate_misses            0                       # Number of misses that were no-allocate
system.l2.tags.replacements                       641                       # number of replacements
system.l2.tags.tagsinuse                  8752.786661                       # Cycle average of tags in use
system.l2.tags.total_refs                      185855                       # Total number of references to valid blocks.
system.l2.tags.sampled_refs                     10248                       # Sample count of references to valid blocks.
system.l2.tags.avg_refs                     18.135734                       # Average number of references to valid blocks.
system.l2.tags.warmup_cycle                         0                       # Cycle when the warmup percentage was hit.
system.l2.tags.occ_blocks::writebacks     5981.841463                       # Average occupied blocks per requestor
system.l2.tags.occ_blocks::cpu.inst       1817.293142                       # Average occupied blocks per requestor
system.l2.tags.occ_blocks::cpu.data        953.652056                       # Average occupied blocks per requestor
system.l2.tags.occ_percent::writebacks       0.182551                       # Average percentage of cache occupancy
system.l2.tags.occ_percent::cpu.inst         0.055459                       # Average percentage of cache occupancy
system.l2.tags.occ_percent::cpu.data         0.029103                       # Average percentage of cache occupancy
system.l2.tags.occ_percent::total            0.267114                       # Average percentage of cache occupancy
system.l2.tags.occ_task_id_blocks::1024          9607                       # Occupied blocks per task id
system.l2.tags.age_task_id_blocks_1024::0            1                       # Occupied blocks per task id
system.l2.tags.age_task_id_blocks_1024::2            3                       # Occupied blocks per task id
system.l2.tags.age_task_id_blocks_1024::3          402                       # Occupied blocks per task id
system.l2.tags.age_task_id_blocks_1024::4         9201                       # Occupied blocks per task id
system.l2.tags.occ_task_id_percent::1024     0.293182                       # Percentage of cache occupancy per task id
system.l2.tags.tag_accesses                    612939                       # Number of tag accesses
system.l2.tags.data_accesses                   612939                       # Number of data accesses
system.l2.WritebackDirty_hits::writebacks       199306                       # number of WritebackDirty hits
system.l2.WritebackDirty_hits::total           199306                       # number of WritebackDirty hits
system.l2.WritebackClean_hits::writebacks        17489                       # number of WritebackClean hits
system.l2.WritebackClean_hits::total            17489                       # number of WritebackClean hits
system.l2.ReadExReq_hits::cpu.data             148794                       # number of ReadExReq hits
system.l2.ReadExReq_hits::total                148794                       # number of ReadExReq hits
system.l2.ReadCleanReq_hits::cpu.inst           16661                       # number of ReadCleanReq hits
system.l2.ReadCleanReq_hits::total              16661                       # number of ReadCleanReq hits
system.l2.ReadSharedReq_hits::cpu.data          46459                       # number of ReadSharedReq hits
system.l2.ReadSharedReq_hits::total             46459                       # number of ReadSharedReq hits
system.l2.demand_hits::cpu.inst                 16661                       # number of demand (read+write) hits
system.l2.demand_hits::cpu.data                195253                       # number of demand (read+write) hits
system.l2.demand_hits::total                   211914                       # number of demand (read+write) hits
system.l2.overall_hits::cpu.inst                16661                       # number of overall hits
system.l2.overall_hits::cpu.data               195253                       # number of overall hits
system.l2.overall_hits::total                  211914                       # number of overall hits
system.l2.ReadExReq_misses::cpu.data             8715                       # number of ReadExReq misses
system.l2.ReadExReq_misses::total                8715                       # number of ReadExReq misses
system.l2.ReadCleanReq_misses::cpu.inst          2276                       # number of ReadCleanReq misses
system.l2.ReadCleanReq_misses::total             2276                       # number of ReadCleanReq misses
system.l2.ReadSharedReq_misses::cpu.data         2458                       # number of ReadSharedReq misses
system.l2.ReadSharedReq_misses::total            2458                       # number of ReadSharedReq misses
system.l2.demand_misses::cpu.inst                2276                       # number of demand (read+write) misses
system.l2.demand_misses::cpu.data               11173                       # number of demand (read+write) misses
system.l2.demand_misses::total                  13449                       # number of demand (read+write) misses
system.l2.overall_misses::cpu.inst               2276                       # number of overall misses
system.l2.overall_misses::cpu.data              11173                       # number of overall misses
system.l2.overall_misses::total                 13449                       # number of overall misses
system.l2.ReadExReq_miss_latency::cpu.data    662332000                       # number of ReadExReq miss cycles
system.l2.ReadExReq_miss_latency::total     662332000                       # number of ReadExReq miss cycles
system.l2.ReadCleanReq_miss_latency::cpu.inst    169235000                       # number of ReadCleanReq miss cycles
system.l2.ReadCleanReq_miss_latency::total    169235000                       # number of ReadCleanReq miss cycles
system.l2.ReadSharedReq_miss_latency::cpu.data    186086500                       # number of ReadSharedReq miss cycles
system.l2.ReadSharedReq_miss_latency::total    186086500                       # number of ReadSharedReq miss cycles
system.l2.demand_miss_latency::cpu.inst     169235000                       # number of demand (read+write) miss cycles
system.l2.demand_miss_latency::cpu.data     848418500                       # number of demand (read+write) miss cycles
system.l2.demand_miss_latency::total       1017653500                       # number of demand (read+write) miss cycles
system.l2.overall_miss_latency::cpu.inst    169235000                       # number of overall miss cycles
system.l2.overall_miss_latency::cpu.data    848418500                       # number of overall miss cycles
system.l2.overall_miss_latency::total      1017653500                       # number of overall miss cycles
system.l2.WritebackDirty_accesses::writebacks       199306                       # number of WritebackDirty accesses(hits+misses)
system.l2.WritebackDirty_accesses::total       199306                       # number of WritebackDirty accesses(hits+misses)
system.l2.WritebackClean_accesses::writebacks        17489                       # number of WritebackClean accesses(hits+misses)
system.l2.WritebackClean_accesses::total        17489                       # number of WritebackClean accesses(hits+misses)
system.l2.ReadExReq_accesses::cpu.data         157509                       # number of ReadExReq accesses(hits+misses)
system.l2.ReadExReq_accesses::total            157509                       # number of ReadExReq accesses(hits+misses)
system.l2.ReadCleanReq_accesses::cpu.inst        18937                       # number of ReadCleanReq accesses(hits+misses)
system.l2.ReadCleanReq_accesses::total          18937                       # number of ReadCleanReq accesses(hits+misses)
system.l2.ReadSharedReq_accesses::cpu.data        48917                       # number of ReadSharedReq accesses(hits+misses)
system.l2.ReadSharedReq_accesses::total         48917                       # number of ReadSharedReq accesses(hits+misses)
system.l2.demand_accesses::cpu.inst             18937                       # number of demand (read+write) accesses
system.l2.demand_accesses::cpu.data            206426                       # number of demand (read+write) accesses
system.l2.demand_accesses::total               225363                       # number of demand (read+write) accesses
system.l2.overall_accesses::cpu.inst            18937                       # number of overall (read+write) accesses
system.l2.overall_accesses::cpu.data           206426                       # number of overall (read+write) accesses
system.l2.overall_accesses::total              225363                       # number of overall (read+write) accesses
system.l2.ReadExReq_miss_rate::cpu.data      0.055330                       # miss rate for ReadExReq accesses
system.l2.ReadExReq_miss_rate::total         0.055330                       # miss rate for ReadExReq accesses
system.l2.ReadCleanReq_miss_rate::cpu.inst     0.120188                       # miss rate for ReadCleanReq accesses
system.l2.ReadCleanReq_miss_rate::total      0.120188                       # miss rate for ReadCleanReq accesses
system.l2.ReadSharedReq_miss_rate::cpu.data     0.050248                       # miss rate for ReadSharedReq accesses
system.l2.ReadSharedReq_miss_rate::total     0.050248                       # miss rate for ReadSharedReq accesses
system.l2.demand_miss_rate::cpu.inst         0.120188                       # miss rate for demand accesses
system.l2.demand_miss_rate::cpu.data         0.054126                       # miss rate for demand accesses
system.l2.demand_miss_rate::total            0.059677                       # miss rate for demand accesses
system.l2.overall_miss_rate::cpu.inst        0.120188                       # miss rate for overall accesses
system.l2.overall_miss_rate::cpu.data        0.054126                       # miss rate for overall accesses
system.l2.overall_miss_rate::total           0.059677                       # miss rate for overall accesses
system.l2.ReadExReq_avg_miss_latency::cpu.data 75999.082042                       # average ReadExReq miss latency
system.l2.ReadExReq_avg_miss_latency::total 75999.082042                       # average ReadExReq miss latency
system.l2.ReadCleanReq_avg_miss_latency::cpu.inst 74356.326889                       # average ReadCleanReq miss latency
system.l2.ReadCleanReq_avg_miss_latency::total 74356.326889                       # average ReadCleanReq miss latency
system.l2.ReadSharedReq_avg_miss_latency::cpu.data 75706.468674                       # average ReadSharedReq miss latency
system.l2.ReadSharedReq_avg_miss_latency::total 75706.468674                       # average ReadSharedReq miss latency
system.l2.demand_avg_miss_latency::cpu.inst 74356.326889                       # average overall miss latency
system.l2.demand_avg_miss_latency::cpu.data 75934.708673                       # average overall miss latency
system.l2.demand_avg_miss_latency::total 75667.596104                       # average overall miss latency
system.l2.overall_avg_miss_latency::cpu.inst 74356.326889                       # average overall miss latency
system.l2.overall_avg_miss_latency::cpu.data 75934.708673                       # average overall miss latency
system.l2.overall_avg_miss_latency::total 75667.596104                       # average overall miss latency
system.l2.blocked_cycles::no_mshrs                  0                       # number of cycles access was blocked
system.l2.blocked_cycles::no_targets                0                       # number of cycles access was blocked
system.l2.blocked::no_mshrs                         0                       # number of cycles access was blocked
system.l2.blocked::no_targets                       0                       # number of cycles access was blocked
system.l2.avg_blocked_cycles::no_mshrs            nan                       # average number of cycles each access was blocked
system.l2.avg_blocked_cycles::no_targets          nan                       # average number of cycles each access was blocked
system.l2.fast_writes                               0                       # number of fast writes performed
system.l2.cache_copies                              0                       # number of cache copies performed
system.l2.writebacks::writebacks                   24                       # number of writebacks
system.l2.writebacks::total                        24                       # number of writebacks
system.l2.CleanEvict_mshr_misses::writebacks           83                       # number of CleanEvict MSHR misses
system.l2.CleanEvict_mshr_misses::total            83                       # number of CleanEvict MSHR misses
system.l2.ReadExReq_mshr_misses::cpu.data         8715                       # number of ReadExReq MSHR misses
system.l2.ReadExReq_mshr_misses::total           8715                       # number of ReadExReq MSHR misses
system.l2.ReadCleanReq_mshr_misses::cpu.inst         2276                       # number of ReadCleanReq MSHR misses
system.l2.ReadCleanReq_mshr_misses::total         2276                       # number of ReadCleanReq MSHR misses
system.l2.ReadSharedReq_mshr_misses::cpu.data         2458                       # number of ReadSharedReq MSHR misses
system.l2.ReadSharedReq_mshr_misses::total         2458                       # number of ReadSharedReq MSHR misses
system.l2.demand_mshr_misses::cpu.inst           2276                       # number of demand (read+write) MSHR misses
system.l2.demand_mshr_misses::cpu.data          11173                       # number of demand (read+write) MSHR misses
system.l2.demand_mshr_misses::total             13449                       # number of demand (read+write) MSHR misses
system.l2.overall_mshr_misses::cpu.inst          2276                       # number of overall MSHR misses
system.l2.overall_mshr_misses::cpu.data         11173                       # number of overall MSHR misses
system.l2.overall_mshr_misses::total            13449                       # number of overall MSHR misses
system.l2.ReadExReq_mshr_miss_latency::cpu.data    575182000                       # number of ReadExReq MSHR miss cycles
system.l2.ReadExReq_mshr_miss_latency::total    575182000                       # number of ReadExReq MSHR miss cycles
system.l2.ReadCleanReq_mshr_miss_latency::cpu.inst    146475000                       # number of ReadCleanReq MSHR miss cycles
system.l2.ReadCleanReq_mshr_miss_latency::total    146475000                       # number of ReadCleanReq MSHR miss cycles
system.l2.ReadSharedReq_mshr_miss_latency::cpu.data    161506500                       # number of ReadSharedReq MSHR miss cycles
system.l2.ReadSharedReq_mshr_miss_latency::total    161506500                       # number of ReadSharedReq MSHR miss cycles
system.l2.demand_mshr_miss_latency::cpu.inst    146475000                       # number of demand (read+write) MSHR miss cycles
system.l2.demand_mshr_miss_latency::cpu.data    736688500                       # number of demand (read+write) MSHR miss cycles
system.l2.demand_mshr_miss_latency::total    883163500                       # number of demand (read+write) MSHR miss cycles
system.l2.overall_mshr_miss_latency::cpu.inst    146475000                       # number of overall MSHR miss cycles
system.l2.overall_mshr_miss_latency::cpu.data    736688500                       # number of overall MSHR miss cycles
system.l2.overall_mshr_miss_latency::total    883163500                       # number of overall MSHR miss cycles
system.l2.CleanEvict_mshr_miss_rate::writebacks          inf                       # mshr miss rate for CleanEvict accesses
system.l2.CleanEvict_mshr_miss_rate::total          inf                       # mshr miss rate for CleanEvict accesses
system.l2.ReadExReq_mshr_miss_rate::cpu.data     0.055330                       # mshr miss rate for ReadExReq accesses
system.l2.ReadExReq_mshr_miss_rate::total     0.055330                       # mshr miss rate for ReadExReq accesses
system.l2.ReadCleanReq_mshr_miss_rate::cpu.inst     0.120188                       # mshr miss rate for ReadCleanReq accesses
system.l2.ReadCleanReq_mshr_miss_rate::total     0.120188                       # mshr miss rate for ReadCleanReq accesses
system.l2.ReadSharedReq_mshr_miss_rate::cpu.data     0.050248                       # mshr miss rate for ReadSharedReq accesses
system.l2.ReadSharedReq_mshr_miss_rate::total     0.050248                       # mshr miss rate for ReadSharedReq accesses
system.l2.demand_mshr_miss_rate::cpu.inst     0.120188                       # mshr miss rate for demand accesses
system.l2.demand_mshr_miss_rate::cpu.data     0.054126                       # mshr miss rate for demand accesses
system.l2.demand_mshr_miss_rate::total       0.059677                       # mshr miss rate for demand accesses
system.l2.overall_mshr_miss_rate::cpu.inst     0.120188                       # mshr miss rate for overall accesses
system.l2.overall_mshr_miss_rate::cpu.data     0.054126                       # mshr miss rate for overall accesses
system.l2.overall_mshr_miss_rate::total      0.059677                       # mshr miss rate for overall accesses
system.l2.ReadExReq_avg_mshr_miss_latency::cpu.data 65999.082042                       # average ReadExReq mshr miss latency
system.l2.ReadExReq_avg_mshr_miss_latency::total 65999.082042                       # average ReadExReq mshr miss latency
system.l2.ReadCleanReq_avg_mshr_miss_latency::cpu.inst 64356.326889                       # average ReadCleanReq mshr miss latency
system.l2.ReadCleanReq_avg_mshr_miss_latency::total 64356.326889                       # average ReadCleanReq mshr miss latency
system.l2.ReadSharedReq_avg_mshr_miss_latency::cpu.data 65706.468674                       # average ReadSharedReq mshr miss latency
system.l2.ReadSharedReq_avg_mshr_miss_latency::total 65706.468674                       # average ReadSharedReq mshr miss latency
system.l2.demand_avg_mshr_miss_latency::cpu.inst 64356.326889                       # average overall mshr miss latency
system.l2.demand_avg_mshr_miss_latency::cpu.data 65934.708673                       # average overall mshr miss latency
system.l2.demand_avg_mshr_miss_latency::total 65667.596104                       # average overall mshr miss latency
system.l2.overall_avg_mshr_miss_latency::cpu.inst 64356.326889                       # average overall mshr miss latency
system.l2.overall_avg_mshr_miss_latency::cpu.data 65934.708673                       # average overall mshr miss latency
system.l2.overall_avg_mshr_miss_latency::total 65667.596104                       # average overall mshr miss latency
system.l2.no_allocate_misses                        0                       # Number of misses that were no-allocate
system.membus.trans_dist::ReadResp               4734                       # Transaction distribution
system.membus.trans_dist::WritebackDirty           24                       # Transaction distribution
system.membus.trans_dist::CleanEvict              309                       # Transaction distribution
system.membus.trans_dist::ReadExReq              8715                       # Transaction distribution
system.membus.trans_dist::ReadExResp             8715                       # Transaction distribution
system.membus.trans_dist::ReadSharedReq          4734                       # Transaction distribution
system.membus.pkt_count_system.l2.mem_side::system.mem_ctrls.port        27231                       # Packet count per connected master and slave (bytes)
system.membus.pkt_count_system.l2.mem_side::total        27231                       # Packet count per connected master and slave (bytes)
system.membus.pkt_count::total                  27231                       # Packet count per connected master and slave (bytes)
system.membus.pkt_size_system.l2.mem_side::system.mem_ctrls.port       431136                       # Cumulative packet size per connected master and slave (bytes)
system.membus.pkt_size_system.l2.mem_side::total       431136                       # Cumulative packet size per connected master and slave (bytes)
system.membus.pkt_size::total                  431136                       # Cumulative packet size per connected master and slave (bytes)
system.membus.snoops                                0                       # Total snoops (count)
system.membus.snoop_fanout::samples             13782                       # Request fanout histogram
system.membus.snoop_fanout::mean                    0                       # Request fanout histogram
system.membus.snoop_fanout::stdev                   0                       # Request fanout histogram
system.membus.snoop_fanout::underflows              0      0.00%      0.00% # Request fanout histogram
system.membus.snoop_fanout::0                   13782    100.00%    100.00% # Request fanout histogram
system.membus.snoop_fanout::1                       0      0.00%    100.00% # Request fanout histogram
system.membus.snoop_fanout::overflows               0      0.00%    100.00% # Request fanout histogram
system.membus.snoop_fanout::min_value               0                       # Request fanout histogram
system.membus.snoop_fanout::max_value               0                       # Request fanout histogram
system.membus.snoop_fanout::total               13782                       # Request fanout histogram
system.membus.reqLayer2.occupancy            13940000                       # Layer occupancy (ticks)
system.membus.reqLayer2.utilization               0.0                       # Layer utilization (%)
system.membus.respLayer1.occupancy           44555000                       # Layer occupancy (ticks)
system.membus.respLayer1.utilization              0.0                       # Layer utilization (%)
system.tol2bus.snoop_filter.tot_requests       445182                       # Total number of requests made to the snoop filter.
system.tol2bus.snoop_filter.hit_single_requests       219819                       # Number of requests hitting in the snoop filter with a single holder of the requested data.
system.tol2bus.snoop_filter.hit_multi_requests            0                       # Number of requests hitting in the snoop filter with multiple (>1) holders of the requested data.
system.tol2bus.snoop_filter.tot_snoops            391                       # Total number of snoops made to the snoop filter.
system.tol2bus.snoop_filter.hit_single_snoops          391                       # Number of snoops hitting in the snoop filter with a single holder of the requested data.
system.tol2bus.snoop_filter.hit_multi_snoops            0                       # Number of snoops hitting in the snoop filter with multiple (>1) holders of the requested data.
system.tol2bus.trans_dist::ReadResp             67854                       # Transaction distribution
system.tol2bus.trans_dist::WritebackDirty       199330                       # Transaction distribution
system.tol2bus.trans_dist::WritebackClean        17489                       # Transaction distribution
system.tol2bus.trans_dist::CleanEvict            3641                       # Transaction distribution
system.tol2bus.trans_dist::ReadExReq           157509                       # Transaction distribution
system.tol2bus.trans_dist::ReadExResp          157509                       # Transaction distribution
system.tol2bus.trans_dist::ReadCleanReq         18937                       # Transaction distribution
system.tol2bus.trans_dist::ReadSharedReq        48917                       # Transaction distribution
system.tol2bus.pkt_count_system.cpu.icache.mem_side::system.l2.cpu_side        55363                       # Packet count per connected master and slave (bytes)
system.tol2bus.pkt_count_system.cpu.dcache.mem_side::system.l2.cpu_side       615182                       # Packet count per connected master and slave (bytes)
system.tol2bus.pkt_count::total                670545                       # Packet count per connected master and slave (bytes)
system.tol2bus.pkt_size_system.cpu.icache.mem_side::system.l2.cpu_side      1165632                       # Cumulative packet size per connected master and slave (bytes)
system.tol2bus.pkt_size_system.cpu.dcache.mem_side::system.l2.cpu_side     12983424                       # Cumulative packet size per connected master and slave (bytes)
system.tol2bus.pkt_size::total               14149056                       # Cumulative packet size per connected master and slave (bytes)
system.tol2bus.snoops                             641                       # Total snoops (count)
system.tol2bus.snoop_fanout::samples           226004                       # Request fanout histogram
system.tol2bus.snoop_fanout::mean            0.001730                       # Request fanout histogram
system.tol2bus.snoop_fanout::stdev           0.041558                       # Request fanout histogram
system.tol2bus.snoop_fanout::underflows             0      0.00%      0.00% # Request fanout histogram
system.tol2bus.snoop_fanout::0                 225613     99.83%     99.83% # Request fanout histogram
system.tol2bus.snoop_fanout::1                    391      0.17%    100.00% # Request fanout histogram
system.tol2bus.snoop_fanout::2                      0      0.00%    100.00% # Request fanout histogram
system.tol2bus.snoop_fanout::3                      0      0.00%    100.00% # Request fanout histogram
system.tol2bus.snoop_fanout::4                      0      0.00%    100.00% # Request fanout histogram
system.tol2bus.snoop_fanout::overflows              0      0.00%    100.00% # Request fanout histogram
system.tol2bus.snoop_fanout::min_value              0                       # Request fanout histogram
system.tol2bus.snoop_fanout::max_value              1                       # Request fanout histogram
system.tol2bus.snoop_fanout::total             226004                       # Request fanout histogram
system.tol2bus.reqLayer0.occupancy          330988500                       # Layer occupancy (ticks)
system.tol2bus.reqLayer0.utilization              0.0                       # Layer utilization (%)
system.tol2bus.respLayer0.occupancy          18937000                       # Layer occupancy (ticks)
system.tol2bus.respLayer0.utilization             0.0                       # Layer utilization (%)
system.tol2bus.respLayer1.occupancy         206426000                       # Layer occupancy (ticks)
system.tol2bus.respLayer1.utilization             0.0                       # Layer utilization (%)

---------- End Simulation Statistics   ----------
