
---------- Begin Simulation Statistics ----------
sim_seconds                                  0.964317                       # Number of seconds simulated
sim_ticks                                964316674500                       # Number of ticks simulated
final_tick                               964316674500                       # Number of ticks from beginning of simulation (restored from checkpoints and never reset)
sim_freq                                 1000000000000                       # Frequency of simulated ticks
host_inst_rate                                 767489                       # Simulator instruction rate (inst/s)
host_op_rate                                   989900                       # Simulator op (including micro ops) rate (op/s)
host_tick_rate                             1480204200                       # Simulator tick rate (ticks/s)
host_mem_usage                                 835984                       # Number of bytes of host memory used
host_seconds                                   651.48                       # Real time elapsed on the host
sim_insts                                   500000000                       # Number of instructions simulated
sim_ops                                     644895733                       # Number of ops (including micro ops) simulated
system.voltage_domain.voltage                       1                       # Voltage in Volts
system.clk_domain.clock                          1000                       # Clock period in ticks
system.mem_ctrls.bytes_read::cpu.inst           72736                       # Number of bytes read from this memory
system.mem_ctrls.bytes_read::cpu.data          357600                       # Number of bytes read from this memory
system.mem_ctrls.bytes_read::total             430336                       # Number of bytes read from this memory
system.mem_ctrls.bytes_inst_read::cpu.inst        72736                       # Number of instructions bytes read from this memory
system.mem_ctrls.bytes_inst_read::total         72736                       # Number of instructions bytes read from this memory
system.mem_ctrls.bytes_written::writebacks         1024                       # Number of bytes written to this memory
system.mem_ctrls.bytes_written::total            1024                       # Number of bytes written to this memory
system.mem_ctrls.num_reads::cpu.inst             2273                       # Number of read requests responded to by this memory
system.mem_ctrls.num_reads::cpu.data            11175                       # Number of read requests responded to by this memory
system.mem_ctrls.num_reads::total               13448                       # Number of read requests responded to by this memory
system.mem_ctrls.num_writes::writebacks            32                       # Number of write requests responded to by this memory
system.mem_ctrls.num_writes::total                 32                       # Number of write requests responded to by this memory
system.mem_ctrls.bw_read::cpu.inst              75428                       # Total read bandwidth from this memory (bytes/s)
system.mem_ctrls.bw_read::cpu.data             370833                       # Total read bandwidth from this memory (bytes/s)
system.mem_ctrls.bw_read::total                446260                       # Total read bandwidth from this memory (bytes/s)
system.mem_ctrls.bw_inst_read::cpu.inst         75428                       # Instruction read bandwidth from this memory (bytes/s)
system.mem_ctrls.bw_inst_read::total            75428                       # Instruction read bandwidth from this memory (bytes/s)
system.mem_ctrls.bw_write::writebacks            1062                       # Write bandwidth from this memory (bytes/s)
system.mem_ctrls.bw_write::total                 1062                       # Write bandwidth from this memory (bytes/s)
system.mem_ctrls.bw_total::writebacks            1062                       # Total bandwidth to/from this memory (bytes/s)
system.mem_ctrls.bw_total::cpu.inst             75428                       # Total bandwidth to/from this memory (bytes/s)
system.mem_ctrls.bw_total::cpu.data            370833                       # Total bandwidth to/from this memory (bytes/s)
system.mem_ctrls.bw_total::total               447322                       # Total bandwidth to/from this memory (bytes/s)
system.mem_ctrls.readReqs                       13448                       # Number of read requests accepted
system.mem_ctrls.writeReqs                         32                       # Number of write requests accepted
system.mem_ctrls.readBursts                     13448                       # Number of DRAM read bursts, including those serviced by the write queue
system.mem_ctrls.writeBursts                       32                       # Number of DRAM write bursts, including those merged in the write queue
system.mem_ctrls.bytesReadDRAM                 860224                       # Total number of bytes read from DRAM
system.mem_ctrls.bytesReadWrQ                     448                       # Total number of bytes read from write queue
system.mem_ctrls.bytesWritten                       0                       # Total number of bytes written to DRAM
system.mem_ctrls.bytesReadSys                  430336                       # Total read bytes from the system interface side
system.mem_ctrls.bytesWrittenSys                 1024                       # Total written bytes from the system interface side
system.mem_ctrls.servicedByWrQ                      7                       # Number of DRAM read bursts serviced by the write queue
system.mem_ctrls.mergedWrBursts                     8                       # Number of DRAM write bursts merged with an existing one
system.mem_ctrls.neitherReadNorWriteReqs          214                       # Number of requests that are neither read nor write
system.mem_ctrls.perBankRdBursts::0               606                       # Per bank write bursts
system.mem_ctrls.perBankRdBursts::1               674                       # Per bank write bursts
system.mem_ctrls.perBankRdBursts::2               820                       # Per bank write bursts
system.mem_ctrls.perBankRdBursts::3               610                       # Per bank write bursts
system.mem_ctrls.perBankRdBursts::4               891                       # Per bank write bursts
system.mem_ctrls.perBankRdBursts::5               778                       # Per bank write bursts
system.mem_ctrls.perBankRdBursts::6               659                       # Per bank write bursts
system.mem_ctrls.perBankRdBursts::7               787                       # Per bank write bursts
system.mem_ctrls.perBankRdBursts::8               927                       # Per bank write bursts
system.mem_ctrls.perBankRdBursts::9               959                       # Per bank write bursts
system.mem_ctrls.perBankRdBursts::10             1039                       # Per bank write bursts
system.mem_ctrls.perBankRdBursts::11             1136                       # Per bank write bursts
system.mem_ctrls.perBankRdBursts::12              949                       # Per bank write bursts
system.mem_ctrls.perBankRdBursts::13              884                       # Per bank write bursts
system.mem_ctrls.perBankRdBursts::14              852                       # Per bank write bursts
system.mem_ctrls.perBankRdBursts::15              870                       # Per bank write bursts
system.mem_ctrls.perBankWrBursts::0                 0                       # Per bank write bursts
system.mem_ctrls.perBankWrBursts::1                 0                       # Per bank write bursts
system.mem_ctrls.perBankWrBursts::2                 0                       # Per bank write bursts
system.mem_ctrls.perBankWrBursts::3                 0                       # Per bank write bursts
system.mem_ctrls.perBankWrBursts::4                 0                       # Per bank write bursts
system.mem_ctrls.perBankWrBursts::5                 0                       # Per bank write bursts
system.mem_ctrls.perBankWrBursts::6                 0                       # Per bank write bursts
system.mem_ctrls.perBankWrBursts::7                 0                       # Per bank write bursts
system.mem_ctrls.perBankWrBursts::8                 0                       # Per bank write bursts
system.mem_ctrls.perBankWrBursts::9                 0                       # Per bank write bursts
system.mem_ctrls.perBankWrBursts::10                0                       # Per bank write bursts
system.mem_ctrls.perBankWrBursts::11                0                       # Per bank write bursts
system.mem_ctrls.perBankWrBursts::12                0                       # Per bank write bursts
system.mem_ctrls.perBankWrBursts::13                0                       # Per bank write bursts
system.mem_ctrls.perBankWrBursts::14                0                       # Per bank write bursts
system.mem_ctrls.perBankWrBursts::15                0                       # Per bank write bursts
system.mem_ctrls.numRdRetry                         0                       # Number of times read queue was full causing retry
system.mem_ctrls.numWrRetry                         0                       # Number of times write queue was full causing retry
system.mem_ctrls.totGap                  343371949500                       # Total gap between requests
system.mem_ctrls.readPktSize::0                     0                       # Read request sizes (log2)
system.mem_ctrls.readPktSize::1                     0                       # Read request sizes (log2)
system.mem_ctrls.readPktSize::2                     0                       # Read request sizes (log2)
system.mem_ctrls.readPktSize::3                     0                       # Read request sizes (log2)
system.mem_ctrls.readPktSize::4                     0                       # Read request sizes (log2)
system.mem_ctrls.readPktSize::5                 13448                       # Read request sizes (log2)
system.mem_ctrls.readPktSize::6                     0                       # Read request sizes (log2)
system.mem_ctrls.writePktSize::0                    0                       # Write request sizes (log2)
system.mem_ctrls.writePktSize::1                    0                       # Write request sizes (log2)
system.mem_ctrls.writePktSize::2                    0                       # Write request sizes (log2)
system.mem_ctrls.writePktSize::3                    0                       # Write request sizes (log2)
system.mem_ctrls.writePktSize::4                    0                       # Write request sizes (log2)
system.mem_ctrls.writePktSize::5                   32                       # Write request sizes (log2)
system.mem_ctrls.writePktSize::6                    0                       # Write request sizes (log2)
system.mem_ctrls.rdQLenPdf::0                   12177                       # What read queue length does an incoming req see
system.mem_ctrls.rdQLenPdf::1                     647                       # What read queue length does an incoming req see
system.mem_ctrls.rdQLenPdf::2                     617                       # What read queue length does an incoming req see
system.mem_ctrls.rdQLenPdf::3                       0                       # What read queue length does an incoming req see
system.mem_ctrls.rdQLenPdf::4                       0                       # What read queue length does an incoming req see
system.mem_ctrls.rdQLenPdf::5                       0                       # What read queue length does an incoming req see
system.mem_ctrls.rdQLenPdf::6                       0                       # What read queue length does an incoming req see
system.mem_ctrls.rdQLenPdf::7                       0                       # What read queue length does an incoming req see
system.mem_ctrls.rdQLenPdf::8                       0                       # What read queue length does an incoming req see
system.mem_ctrls.rdQLenPdf::9                       0                       # What read queue length does an incoming req see
system.mem_ctrls.rdQLenPdf::10                      0                       # What read queue length does an incoming req see
system.mem_ctrls.rdQLenPdf::11                      0                       # What read queue length does an incoming req see
system.mem_ctrls.rdQLenPdf::12                      0                       # What read queue length does an incoming req see
system.mem_ctrls.rdQLenPdf::13                      0                       # What read queue length does an incoming req see
system.mem_ctrls.rdQLenPdf::14                      0                       # What read queue length does an incoming req see
system.mem_ctrls.rdQLenPdf::15                      0                       # What read queue length does an incoming req see
system.mem_ctrls.rdQLenPdf::16                      0                       # What read queue length does an incoming req see
system.mem_ctrls.rdQLenPdf::17                      0                       # What read queue length does an incoming req see
system.mem_ctrls.rdQLenPdf::18                      0                       # What read queue length does an incoming req see
system.mem_ctrls.rdQLenPdf::19                      0                       # What read queue length does an incoming req see
system.mem_ctrls.rdQLenPdf::20                      0                       # What read queue length does an incoming req see
system.mem_ctrls.rdQLenPdf::21                      0                       # What read queue length does an incoming req see
system.mem_ctrls.rdQLenPdf::22                      0                       # What read queue length does an incoming req see
system.mem_ctrls.rdQLenPdf::23                      0                       # What read queue length does an incoming req see
system.mem_ctrls.rdQLenPdf::24                      0                       # What read queue length does an incoming req see
system.mem_ctrls.rdQLenPdf::25                      0                       # What read queue length does an incoming req see
system.mem_ctrls.rdQLenPdf::26                      0                       # What read queue length does an incoming req see
system.mem_ctrls.rdQLenPdf::27                      0                       # What read queue length does an incoming req see
system.mem_ctrls.rdQLenPdf::28                      0                       # What read queue length does an incoming req see
system.mem_ctrls.rdQLenPdf::29                      0                       # What read queue length does an incoming req see
system.mem_ctrls.rdQLenPdf::30                      0                       # What read queue length does an incoming req see
system.mem_ctrls.rdQLenPdf::31                      0                       # What read queue length does an incoming req see
system.mem_ctrls.wrQLenPdf::0                       1                       # What write queue length does an incoming req see
system.mem_ctrls.wrQLenPdf::1                       1                       # What write queue length does an incoming req see
system.mem_ctrls.wrQLenPdf::2                       1                       # What write queue length does an incoming req see
system.mem_ctrls.wrQLenPdf::3                       1                       # What write queue length does an incoming req see
system.mem_ctrls.wrQLenPdf::4                       1                       # What write queue length does an incoming req see
system.mem_ctrls.wrQLenPdf::5                       1                       # What write queue length does an incoming req see
system.mem_ctrls.wrQLenPdf::6                       1                       # What write queue length does an incoming req see
system.mem_ctrls.wrQLenPdf::7                       1                       # What write queue length does an incoming req see
system.mem_ctrls.wrQLenPdf::8                       1                       # What write queue length does an incoming req see
system.mem_ctrls.wrQLenPdf::9                       1                       # What write queue length does an incoming req see
system.mem_ctrls.wrQLenPdf::10                      1                       # What write queue length does an incoming req see
system.mem_ctrls.wrQLenPdf::11                      1                       # What write queue length does an incoming req see
system.mem_ctrls.wrQLenPdf::12                      1                       # What write queue length does an incoming req see
system.mem_ctrls.wrQLenPdf::13                      1                       # What write queue length does an incoming req see
system.mem_ctrls.wrQLenPdf::14                      1                       # What write queue length does an incoming req see
system.mem_ctrls.wrQLenPdf::15                      1                       # What write queue length does an incoming req see
system.mem_ctrls.wrQLenPdf::16                      1                       # What write queue length does an incoming req see
system.mem_ctrls.wrQLenPdf::17                      1                       # What write queue length does an incoming req see
system.mem_ctrls.wrQLenPdf::18                      1                       # What write queue length does an incoming req see
system.mem_ctrls.wrQLenPdf::19                      1                       # What write queue length does an incoming req see
system.mem_ctrls.wrQLenPdf::20                      1                       # What write queue length does an incoming req see
system.mem_ctrls.wrQLenPdf::21                      1                       # What write queue length does an incoming req see
system.mem_ctrls.wrQLenPdf::22                      1                       # What write queue length does an incoming req see
system.mem_ctrls.wrQLenPdf::23                      1                       # What write queue length does an incoming req see
system.mem_ctrls.wrQLenPdf::24                      0                       # What write queue length does an incoming req see
system.mem_ctrls.wrQLenPdf::25                      0                       # What write queue length does an incoming req see
system.mem_ctrls.wrQLenPdf::26                      0                       # What write queue length does an incoming req see
system.mem_ctrls.wrQLenPdf::27                      0                       # What write queue length does an incoming req see
system.mem_ctrls.wrQLenPdf::28                      0                       # What write queue length does an incoming req see
system.mem_ctrls.wrQLenPdf::29                      0                       # What write queue length does an incoming req see
system.mem_ctrls.wrQLenPdf::30                      0                       # What write queue length does an incoming req see
system.mem_ctrls.wrQLenPdf::31                      0                       # What write queue length does an incoming req see
system.mem_ctrls.wrQLenPdf::32                      0                       # What write queue length does an incoming req see
system.mem_ctrls.wrQLenPdf::33                      0                       # What write queue length does an incoming req see
system.mem_ctrls.wrQLenPdf::34                      0                       # What write queue length does an incoming req see
system.mem_ctrls.wrQLenPdf::35                      0                       # What write queue length does an incoming req see
system.mem_ctrls.wrQLenPdf::36                      0                       # What write queue length does an incoming req see
system.mem_ctrls.wrQLenPdf::37                      0                       # What write queue length does an incoming req see
system.mem_ctrls.wrQLenPdf::38                      0                       # What write queue length does an incoming req see
system.mem_ctrls.wrQLenPdf::39                      0                       # What write queue length does an incoming req see
system.mem_ctrls.wrQLenPdf::40                      0                       # What write queue length does an incoming req see
system.mem_ctrls.wrQLenPdf::41                      0                       # What write queue length does an incoming req see
system.mem_ctrls.wrQLenPdf::42                      0                       # What write queue length does an incoming req see
system.mem_ctrls.wrQLenPdf::43                      0                       # What write queue length does an incoming req see
system.mem_ctrls.wrQLenPdf::44                      0                       # What write queue length does an incoming req see
system.mem_ctrls.wrQLenPdf::45                      0                       # What write queue length does an incoming req see
system.mem_ctrls.wrQLenPdf::46                      0                       # What write queue length does an incoming req see
system.mem_ctrls.wrQLenPdf::47                      0                       # What write queue length does an incoming req see
system.mem_ctrls.wrQLenPdf::48                      0                       # What write queue length does an incoming req see
system.mem_ctrls.wrQLenPdf::49                      0                       # What write queue length does an incoming req see
system.mem_ctrls.wrQLenPdf::50                      0                       # What write queue length does an incoming req see
system.mem_ctrls.wrQLenPdf::51                      0                       # What write queue length does an incoming req see
system.mem_ctrls.wrQLenPdf::52                      0                       # What write queue length does an incoming req see
system.mem_ctrls.wrQLenPdf::53                      0                       # What write queue length does an incoming req see
system.mem_ctrls.wrQLenPdf::54                      0                       # What write queue length does an incoming req see
system.mem_ctrls.wrQLenPdf::55                      0                       # What write queue length does an incoming req see
system.mem_ctrls.wrQLenPdf::56                      0                       # What write queue length does an incoming req see
system.mem_ctrls.wrQLenPdf::57                      0                       # What write queue length does an incoming req see
system.mem_ctrls.wrQLenPdf::58                      0                       # What write queue length does an incoming req see
system.mem_ctrls.wrQLenPdf::59                      0                       # What write queue length does an incoming req see
system.mem_ctrls.wrQLenPdf::60                      0                       # What write queue length does an incoming req see
system.mem_ctrls.wrQLenPdf::61                      0                       # What write queue length does an incoming req see
system.mem_ctrls.wrQLenPdf::62                      0                       # What write queue length does an incoming req see
system.mem_ctrls.wrQLenPdf::63                      0                       # What write queue length does an incoming req see
system.mem_ctrls.bytesPerActivate::samples         3180                       # Bytes accessed per row activation
system.mem_ctrls.bytesPerActivate::mean    270.510692                       # Bytes accessed per row activation
system.mem_ctrls.bytesPerActivate::gmean   167.130884                       # Bytes accessed per row activation
system.mem_ctrls.bytesPerActivate::stdev   317.916647                       # Bytes accessed per row activation
system.mem_ctrls.bytesPerActivate::0-127          734     23.08%     23.08% # Bytes accessed per row activation
system.mem_ctrls.bytesPerActivate::128-255         1657     52.11%     75.19% # Bytes accessed per row activation
system.mem_ctrls.bytesPerActivate::256-383          140      4.40%     79.59% # Bytes accessed per row activation
system.mem_ctrls.bytesPerActivate::384-511           88      2.77%     82.36% # Bytes accessed per row activation
system.mem_ctrls.bytesPerActivate::512-639           65      2.04%     84.40% # Bytes accessed per row activation
system.mem_ctrls.bytesPerActivate::640-767           46      1.45%     85.85% # Bytes accessed per row activation
system.mem_ctrls.bytesPerActivate::768-895           27      0.85%     86.70% # Bytes accessed per row activation
system.mem_ctrls.bytesPerActivate::896-1023           26      0.82%     87.52% # Bytes accessed per row activation
system.mem_ctrls.bytesPerActivate::1024-1151          397     12.48%    100.00% # Bytes accessed per row activation
system.mem_ctrls.bytesPerActivate::total         3180                       # Bytes accessed per row activation
system.mem_ctrls.totQLat                     96756750                       # Total ticks spent queuing
system.mem_ctrls.totMemAccLat               348775500                       # Total ticks spent from burst creation until serviced by the DRAM
system.mem_ctrls.totBusLat                   67205000                       # Total ticks spent in databus transfers
system.mem_ctrls.avgQLat                      7198.63                       # Average queueing delay per DRAM burst
system.mem_ctrls.avgBusLat                    5000.00                       # Average bus latency per DRAM burst
system.mem_ctrls.avgMemAccLat                25948.63                       # Average memory access latency per DRAM burst
system.mem_ctrls.avgRdBW                         0.89                       # Average DRAM read bandwidth in MiByte/s
system.mem_ctrls.avgWrBW                         0.00                       # Average achieved write bandwidth in MiByte/s
system.mem_ctrls.avgRdBWSys                      0.45                       # Average system read bandwidth in MiByte/s
system.mem_ctrls.avgWrBWSys                      0.00                       # Average system write bandwidth in MiByte/s
system.mem_ctrls.peakBW                      12800.00                       # Theoretical peak bandwidth in MiByte/s
system.mem_ctrls.busUtil                         0.01                       # Data bus utilization in percentage
system.mem_ctrls.busUtilRead                     0.01                       # Data bus utilization in percentage for reads
system.mem_ctrls.busUtilWrite                    0.00                       # Data bus utilization in percentage for writes
system.mem_ctrls.avgRdQLen                       1.00                       # Average read queue length when enqueuing
system.mem_ctrls.avgWrQLen                      23.08                       # Average write queue length when enqueuing
system.mem_ctrls.readRowHits                    10261                       # Number of row buffer hits during reads
system.mem_ctrls.writeRowHits                       0                       # Number of row buffer hits during writes
system.mem_ctrls.readRowHitRate                 76.34                       # Row buffer hit rate for reads
system.mem_ctrls.writeRowHitRate                 0.00                       # Row buffer hit rate for writes
system.mem_ctrls.avgGap                   25472696.55                       # Average gap between requests
system.mem_ctrls.pageHitRate                    76.20                       # Row buffer hit rate, read and write combined
system.mem_ctrls_0.actEnergy                 10803240                       # Energy for activate commands per rank (pJ)
system.mem_ctrls_0.preEnergy                  5894625                       # Energy for precharge commands per rank (pJ)
system.mem_ctrls_0.readEnergy                45435000                       # Energy for read commands per rank (pJ)
system.mem_ctrls_0.writeEnergy                      0                       # Energy for write commands per rank (pJ)
system.mem_ctrls_0.refreshEnergy          62984138880                       # Energy for refresh commands per rank (pJ)
system.mem_ctrls_0.actBackEnergy          23597416035                       # Energy for active background per rank (pJ)
system.mem_ctrls_0.preBackEnergy         557887554000                       # Energy for precharge background per rank (pJ)
system.mem_ctrls_0.totalEnergy           644531241780                       # Total energy per rank (pJ)
system.mem_ctrls_0.averagePower            668.384732                       # Core power per rank (mW)
system.mem_ctrls_0.memoryStateTime::IDLE 928097373750                       # Time in different power states
system.mem_ctrls_0.memoryStateTime::REF   32200480000                       # Time in different power states
system.mem_ctrls_0.memoryStateTime::PRE_PDN            0                       # Time in different power states
system.mem_ctrls_0.memoryStateTime::ACT    4013896250                       # Time in different power states
system.mem_ctrls_0.memoryStateTime::ACT_PDN            0                       # Time in different power states
system.mem_ctrls_1.actEnergy                 13237560                       # Energy for activate commands per rank (pJ)
system.mem_ctrls_1.preEnergy                  7222875                       # Energy for precharge commands per rank (pJ)
system.mem_ctrls_1.readEnergy                59404800                       # Energy for read commands per rank (pJ)
system.mem_ctrls_1.writeEnergy                      0                       # Energy for write commands per rank (pJ)
system.mem_ctrls_1.refreshEnergy          62984138880                       # Energy for refresh commands per rank (pJ)
system.mem_ctrls_1.actBackEnergy          24016766175                       # Energy for active background per rank (pJ)
system.mem_ctrls_1.preBackEnergy         557519703000                       # Energy for precharge background per rank (pJ)
system.mem_ctrls_1.totalEnergy           644600473290                       # Total energy per rank (pJ)
system.mem_ctrls_1.averagePower            668.456526                       # Core power per rank (mW)
system.mem_ctrls_1.memoryStateTime::IDLE 927483695000                       # Time in different power states
system.mem_ctrls_1.memoryStateTime::REF   32200480000                       # Time in different power states
system.mem_ctrls_1.memoryStateTime::PRE_PDN            0                       # Time in different power states
system.mem_ctrls_1.memoryStateTime::ACT    4627575000                       # Time in different power states
system.mem_ctrls_1.memoryStateTime::ACT_PDN            0                       # Time in different power states
system.cpu_voltage_domain.voltage                   1                       # Voltage in Volts
system.cpu_clk_domain.clock                       500                       # Clock period in ticks
system.cpu.apic_clk_domain.clock                 8000                       # Clock period in ticks
system.cpu.workload.num_syscalls                   35                       # Number of system calls
system.cpu.numCycles                       1928633349                       # number of cpu cycles simulated
system.cpu.numWorkItemsStarted                      0                       # number of work items this cpu started
system.cpu.numWorkItemsCompleted                    0                       # number of work items this cpu completed
system.cpu.committedInsts                   500000000                       # Number of instructions committed
system.cpu.committedOps                     644895733                       # Number of ops (including micro ops) committed
system.cpu.num_int_alu_accesses             625873233                       # Number of integer alu accesses
system.cpu.num_fp_alu_accesses               27676254                       # Number of float alu accesses
system.cpu.num_func_calls                     1531165                       # number of times a function call or return occured
system.cpu.num_conditional_control_insts     25302281                       # number of instructions that are conditional controls
system.cpu.num_int_insts                    625873233                       # number of integer instructions
system.cpu.num_fp_insts                      27676254                       # number of float instructions
system.cpu.num_int_register_reads          1467548657                       # number of times the integer registers were read
system.cpu.num_int_register_writes          569494356                       # number of times the integer registers were written
system.cpu.num_fp_register_reads             21879879                       # number of times the floating registers were read
system.cpu.num_fp_register_writes            23672685                       # number of times the floating registers were written
system.cpu.num_cc_register_reads            187332012                       # number of times the CC registers were read
system.cpu.num_cc_register_writes           260734382                       # number of times the CC registers were written
system.cpu.num_mem_refs                     254894307                       # number of memory refs
system.cpu.num_load_insts                   219204129                       # Number of load instructions
system.cpu.num_store_insts                   35690178                       # Number of store instructions
system.cpu.num_idle_cycles                          0                       # Number of idle cycles
system.cpu.num_busy_cycles                 1928633349                       # Number of busy cycles
system.cpu.not_idle_fraction                        1                       # Percentage of non-idle cycles
system.cpu.idle_fraction                            0                       # Percentage of idle cycles
system.cpu.Branches                          27605108                       # Number of branches fetched
system.cpu.op_class::No_OpClass               1502715      0.23%      0.23% # Class of executed instruction
system.cpu.op_class::IntAlu                 363720567     56.40%     56.63% # Class of executed instruction
system.cpu.op_class::IntMult                   618823      0.10%     56.73% # Class of executed instruction
system.cpu.op_class::IntDiv                   6323450      0.98%     57.71% # Class of executed instruction
system.cpu.op_class::FloatAdd                17835871      2.77%     60.48% # Class of executed instruction
system.cpu.op_class::FloatCmp                       0      0.00%     60.48% # Class of executed instruction
system.cpu.op_class::FloatCvt                       0      0.00%     60.48% # Class of executed instruction
system.cpu.op_class::FloatMult                      0      0.00%     60.48% # Class of executed instruction
system.cpu.op_class::FloatDiv                       0      0.00%     60.48% # Class of executed instruction
system.cpu.op_class::FloatSqrt                      0      0.00%     60.48% # Class of executed instruction
system.cpu.op_class::SimdAdd                        0      0.00%     60.48% # Class of executed instruction
system.cpu.op_class::SimdAddAcc                     0      0.00%     60.48% # Class of executed instruction
system.cpu.op_class::SimdAlu                        0      0.00%     60.48% # Class of executed instruction
system.cpu.op_class::SimdCmp                        0      0.00%     60.48% # Class of executed instruction
system.cpu.op_class::SimdCvt                        0      0.00%     60.48% # Class of executed instruction
system.cpu.op_class::SimdMisc                       0      0.00%     60.48% # Class of executed instruction
system.cpu.op_class::SimdMult                       0      0.00%     60.48% # Class of executed instruction
system.cpu.op_class::SimdMultAcc                    0      0.00%     60.48% # Class of executed instruction
system.cpu.op_class::SimdShift                      0      0.00%     60.48% # Class of executed instruction
system.cpu.op_class::SimdShiftAcc                   0      0.00%     60.48% # Class of executed instruction
system.cpu.op_class::SimdSqrt                       0      0.00%     60.48% # Class of executed instruction
system.cpu.op_class::SimdFloatAdd                   0      0.00%     60.48% # Class of executed instruction
system.cpu.op_class::SimdFloatAlu                   0      0.00%     60.48% # Class of executed instruction
system.cpu.op_class::SimdFloatCmp                   0      0.00%     60.48% # Class of executed instruction
system.cpu.op_class::SimdFloatCvt                   0      0.00%     60.48% # Class of executed instruction
system.cpu.op_class::SimdFloatDiv                   0      0.00%     60.48% # Class of executed instruction
system.cpu.op_class::SimdFloatMisc                  0      0.00%     60.48% # Class of executed instruction
system.cpu.op_class::SimdFloatMult                  0      0.00%     60.48% # Class of executed instruction
system.cpu.op_class::SimdFloatMultAcc               0      0.00%     60.48% # Class of executed instruction
system.cpu.op_class::SimdFloatSqrt                  0      0.00%     60.48% # Class of executed instruction
system.cpu.op_class::MemRead                219204129     33.99%     94.47% # Class of executed instruction
system.cpu.op_class::MemWrite                35690178      5.53%    100.00% # Class of executed instruction
system.cpu.op_class::IprAccess                      0      0.00%    100.00% # Class of executed instruction
system.cpu.op_class::InstPrefetch                   0      0.00%    100.00% # Class of executed instruction
system.cpu.op_class::total                  644895733                       # Class of executed instruction
system.cpu.dcache.tags.replacements           1047749                       # number of replacements
system.cpu.dcache.tags.tagsinuse          2044.979524                       # Cycle average of tags in use
system.cpu.dcache.tags.total_refs           253846119                       # Total number of references to valid blocks.
system.cpu.dcache.tags.sampled_refs           1049797                       # Sample count of references to valid blocks.
system.cpu.dcache.tags.avg_refs            241.804958                       # Average number of references to valid blocks.
system.cpu.dcache.tags.warmup_cycle        8494304500                       # Cycle when the warmup percentage was hit.
system.cpu.dcache.tags.occ_blocks::cpu.data  2044.979524                       # Average occupied blocks per requestor
system.cpu.dcache.tags.occ_percent::cpu.data     0.998525                       # Average percentage of cache occupancy
system.cpu.dcache.tags.occ_percent::total     0.998525                       # Average percentage of cache occupancy
system.cpu.dcache.tags.occ_task_id_blocks::1024         2048                       # Occupied blocks per task id
system.cpu.dcache.tags.age_task_id_blocks_1024::0            9                       # Occupied blocks per task id
system.cpu.dcache.tags.age_task_id_blocks_1024::1           69                       # Occupied blocks per task id
system.cpu.dcache.tags.age_task_id_blocks_1024::2          442                       # Occupied blocks per task id
system.cpu.dcache.tags.age_task_id_blocks_1024::3          812                       # Occupied blocks per task id
system.cpu.dcache.tags.age_task_id_blocks_1024::4          716                       # Occupied blocks per task id
system.cpu.dcache.tags.occ_task_id_percent::1024            1                       # Percentage of cache occupancy per task id
system.cpu.dcache.tags.tag_accesses         255945713                       # Number of tag accesses
system.cpu.dcache.tags.data_accesses        255945713                       # Number of data accesses
system.cpu.dcache.ReadReq_hits::cpu.data    218748102                       # number of ReadReq hits
system.cpu.dcache.ReadReq_hits::total       218748102                       # number of ReadReq hits
system.cpu.dcache.WriteReq_hits::cpu.data     35097017                       # number of WriteReq hits
system.cpu.dcache.WriteReq_hits::total       35097017                       # number of WriteReq hits
system.cpu.dcache.SoftPFReq_hits::cpu.data         1000                       # number of SoftPFReq hits
system.cpu.dcache.SoftPFReq_hits::total          1000                       # number of SoftPFReq hits
system.cpu.dcache.demand_hits::cpu.data     253845119                       # number of demand (read+write) hits
system.cpu.dcache.demand_hits::total        253845119                       # number of demand (read+write) hits
system.cpu.dcache.overall_hits::cpu.data    253846119                       # number of overall hits
system.cpu.dcache.overall_hits::total       253846119                       # number of overall hits
system.cpu.dcache.ReadReq_misses::cpu.data       451423                       # number of ReadReq misses
system.cpu.dcache.ReadReq_misses::total        451423                       # number of ReadReq misses
system.cpu.dcache.WriteReq_misses::cpu.data       593256                       # number of WriteReq misses
system.cpu.dcache.WriteReq_misses::total       593256                       # number of WriteReq misses
system.cpu.dcache.SoftPFReq_misses::cpu.data         5118                       # number of SoftPFReq misses
system.cpu.dcache.SoftPFReq_misses::total         5118                       # number of SoftPFReq misses
system.cpu.dcache.demand_misses::cpu.data      1044679                       # number of demand (read+write) misses
system.cpu.dcache.demand_misses::total        1044679                       # number of demand (read+write) misses
system.cpu.dcache.overall_misses::cpu.data      1049797                       # number of overall misses
system.cpu.dcache.overall_misses::total       1049797                       # number of overall misses
system.cpu.dcache.ReadReq_miss_latency::cpu.data   5944272000                       # number of ReadReq miss cycles
system.cpu.dcache.ReadReq_miss_latency::total   5944272000                       # number of ReadReq miss cycles
system.cpu.dcache.WriteReq_miss_latency::cpu.data   8284291500                       # number of WriteReq miss cycles
system.cpu.dcache.WriteReq_miss_latency::total   8284291500                       # number of WriteReq miss cycles
system.cpu.dcache.demand_miss_latency::cpu.data  14228563500                       # number of demand (read+write) miss cycles
system.cpu.dcache.demand_miss_latency::total  14228563500                       # number of demand (read+write) miss cycles
system.cpu.dcache.overall_miss_latency::cpu.data  14228563500                       # number of overall miss cycles
system.cpu.dcache.overall_miss_latency::total  14228563500                       # number of overall miss cycles
system.cpu.dcache.ReadReq_accesses::cpu.data    219199525                       # number of ReadReq accesses(hits+misses)
system.cpu.dcache.ReadReq_accesses::total    219199525                       # number of ReadReq accesses(hits+misses)
system.cpu.dcache.WriteReq_accesses::cpu.data     35690273                       # number of WriteReq accesses(hits+misses)
system.cpu.dcache.WriteReq_accesses::total     35690273                       # number of WriteReq accesses(hits+misses)
system.cpu.dcache.SoftPFReq_accesses::cpu.data         6118                       # number of SoftPFReq accesses(hits+misses)
system.cpu.dcache.SoftPFReq_accesses::total         6118                       # number of SoftPFReq accesses(hits+misses)
system.cpu.dcache.demand_accesses::cpu.data    254889798                       # number of demand (read+write) accesses
system.cpu.dcache.demand_accesses::total    254889798                       # number of demand (read+write) accesses
system.cpu.dcache.overall_accesses::cpu.data    254895916                       # number of overall (read+write) accesses
system.cpu.dcache.overall_accesses::total    254895916                       # number of overall (read+write) accesses
system.cpu.dcache.ReadReq_miss_rate::cpu.data     0.002059                       # miss rate for ReadReq accesses
system.cpu.dcache.ReadReq_miss_rate::total     0.002059                       # miss rate for ReadReq accesses
system.cpu.dcache.WriteReq_miss_rate::cpu.data     0.016622                       # miss rate for WriteReq accesses
system.cpu.dcache.WriteReq_miss_rate::total     0.016622                       # miss rate for WriteReq accesses
system.cpu.dcache.SoftPFReq_miss_rate::cpu.data     0.836548                       # miss rate for SoftPFReq accesses
system.cpu.dcache.SoftPFReq_miss_rate::total     0.836548                       # miss rate for SoftPFReq accesses
system.cpu.dcache.demand_miss_rate::cpu.data     0.004099                       # miss rate for demand accesses
system.cpu.dcache.demand_miss_rate::total     0.004099                       # miss rate for demand accesses
system.cpu.dcache.overall_miss_rate::cpu.data     0.004119                       # miss rate for overall accesses
system.cpu.dcache.overall_miss_rate::total     0.004119                       # miss rate for overall accesses
system.cpu.dcache.ReadReq_avg_miss_latency::cpu.data 13167.853654                       # average ReadReq miss latency
system.cpu.dcache.ReadReq_avg_miss_latency::total 13167.853654                       # average ReadReq miss latency
system.cpu.dcache.WriteReq_avg_miss_latency::cpu.data 13964.109086                       # average WriteReq miss latency
system.cpu.dcache.WriteReq_avg_miss_latency::total 13964.109086                       # average WriteReq miss latency
system.cpu.dcache.demand_avg_miss_latency::cpu.data 13620.034001                       # average overall miss latency
system.cpu.dcache.demand_avg_miss_latency::total 13620.034001                       # average overall miss latency
system.cpu.dcache.overall_avg_miss_latency::cpu.data 13553.633226                       # average overall miss latency
system.cpu.dcache.overall_avg_miss_latency::total 13553.633226                       # average overall miss latency
system.cpu.dcache.blocked_cycles::no_mshrs           14                       # number of cycles access was blocked
system.cpu.dcache.blocked_cycles::no_targets            0                       # number of cycles access was blocked
system.cpu.dcache.blocked::no_mshrs                 1                       # number of cycles access was blocked
system.cpu.dcache.blocked::no_targets               0                       # number of cycles access was blocked
system.cpu.dcache.avg_blocked_cycles::no_mshrs           14                       # average number of cycles each access was blocked
system.cpu.dcache.avg_blocked_cycles::no_targets          nan                       # average number of cycles each access was blocked
system.cpu.dcache.fast_writes                       0                       # number of fast writes performed
system.cpu.dcache.cache_copies                      0                       # number of cache copies performed
system.cpu.dcache.writebacks::writebacks      1040496                       # number of writebacks
system.cpu.dcache.writebacks::total           1040496                       # number of writebacks
system.cpu.dcache.ReadReq_mshr_misses::cpu.data       451423                       # number of ReadReq MSHR misses
system.cpu.dcache.ReadReq_mshr_misses::total       451423                       # number of ReadReq MSHR misses
system.cpu.dcache.WriteReq_mshr_misses::cpu.data       593256                       # number of WriteReq MSHR misses
system.cpu.dcache.WriteReq_mshr_misses::total       593256                       # number of WriteReq MSHR misses
system.cpu.dcache.SoftPFReq_mshr_misses::cpu.data         5118                       # number of SoftPFReq MSHR misses
system.cpu.dcache.SoftPFReq_mshr_misses::total         5118                       # number of SoftPFReq MSHR misses
system.cpu.dcache.demand_mshr_misses::cpu.data      1044679                       # number of demand (read+write) MSHR misses
system.cpu.dcache.demand_mshr_misses::total      1044679                       # number of demand (read+write) MSHR misses
system.cpu.dcache.overall_mshr_misses::cpu.data      1049797                       # number of overall MSHR misses
system.cpu.dcache.overall_mshr_misses::total      1049797                       # number of overall MSHR misses
system.cpu.dcache.ReadReq_mshr_miss_latency::cpu.data   5492849000                       # number of ReadReq MSHR miss cycles
system.cpu.dcache.ReadReq_mshr_miss_latency::total   5492849000                       # number of ReadReq MSHR miss cycles
system.cpu.dcache.WriteReq_mshr_miss_latency::cpu.data   7691035500                       # number of WriteReq MSHR miss cycles
system.cpu.dcache.WriteReq_mshr_miss_latency::total   7691035500                       # number of WriteReq MSHR miss cycles
system.cpu.dcache.SoftPFReq_mshr_miss_latency::cpu.data    145392500                       # number of SoftPFReq MSHR miss cycles
system.cpu.dcache.SoftPFReq_mshr_miss_latency::total    145392500                       # number of SoftPFReq MSHR miss cycles
system.cpu.dcache.demand_mshr_miss_latency::cpu.data  13183884500                       # number of demand (read+write) MSHR miss cycles
system.cpu.dcache.demand_mshr_miss_latency::total  13183884500                       # number of demand (read+write) MSHR miss cycles
system.cpu.dcache.overall_mshr_miss_latency::cpu.data  13329277000                       # number of overall MSHR miss cycles
system.cpu.dcache.overall_mshr_miss_latency::total  13329277000                       # number of overall MSHR miss cycles
system.cpu.dcache.ReadReq_mshr_miss_rate::cpu.data     0.002059                       # mshr miss rate for ReadReq accesses
system.cpu.dcache.ReadReq_mshr_miss_rate::total     0.002059                       # mshr miss rate for ReadReq accesses
system.cpu.dcache.WriteReq_mshr_miss_rate::cpu.data     0.016622                       # mshr miss rate for WriteReq accesses
system.cpu.dcache.WriteReq_mshr_miss_rate::total     0.016622                       # mshr miss rate for WriteReq accesses
system.cpu.dcache.SoftPFReq_mshr_miss_rate::cpu.data     0.836548                       # mshr miss rate for SoftPFReq accesses
system.cpu.dcache.SoftPFReq_mshr_miss_rate::total     0.836548                       # mshr miss rate for SoftPFReq accesses
system.cpu.dcache.demand_mshr_miss_rate::cpu.data     0.004099                       # mshr miss rate for demand accesses
system.cpu.dcache.demand_mshr_miss_rate::total     0.004099                       # mshr miss rate for demand accesses
system.cpu.dcache.overall_mshr_miss_rate::cpu.data     0.004119                       # mshr miss rate for overall accesses
system.cpu.dcache.overall_mshr_miss_rate::total     0.004119                       # mshr miss rate for overall accesses
system.cpu.dcache.ReadReq_avg_mshr_miss_latency::cpu.data 12167.853654                       # average ReadReq mshr miss latency
system.cpu.dcache.ReadReq_avg_mshr_miss_latency::total 12167.853654                       # average ReadReq mshr miss latency
system.cpu.dcache.WriteReq_avg_mshr_miss_latency::cpu.data 12964.109086                       # average WriteReq mshr miss latency
system.cpu.dcache.WriteReq_avg_mshr_miss_latency::total 12964.109086                       # average WriteReq mshr miss latency
system.cpu.dcache.SoftPFReq_avg_mshr_miss_latency::cpu.data 28408.069558                       # average SoftPFReq mshr miss latency
system.cpu.dcache.SoftPFReq_avg_mshr_miss_latency::total 28408.069558                       # average SoftPFReq mshr miss latency
system.cpu.dcache.demand_avg_mshr_miss_latency::cpu.data 12620.034001                       # average overall mshr miss latency
system.cpu.dcache.demand_avg_mshr_miss_latency::total 12620.034001                       # average overall mshr miss latency
system.cpu.dcache.overall_avg_mshr_miss_latency::cpu.data 12697.004278                       # average overall mshr miss latency
system.cpu.dcache.overall_avg_mshr_miss_latency::total 12697.004278                       # average overall mshr miss latency
system.cpu.dcache.no_allocate_misses                0                       # Number of misses that were no-allocate
system.cpu.dtb_walker_cache.tags.replacements            0                       # number of replacements
system.cpu.dtb_walker_cache.tags.tagsinuse            0                       # Cycle average of tags in use
system.cpu.dtb_walker_cache.tags.total_refs            0                       # Total number of references to valid blocks.
system.cpu.dtb_walker_cache.tags.sampled_refs            0                       # Sample count of references to valid blocks.
system.cpu.dtb_walker_cache.tags.avg_refs          nan                       # Average number of references to valid blocks.
system.cpu.dtb_walker_cache.tags.warmup_cycle            0                       # Cycle when the warmup percentage was hit.
system.cpu.dtb_walker_cache.tags.tag_accesses            0                       # Number of tag accesses
system.cpu.dtb_walker_cache.tags.data_accesses            0                       # Number of data accesses
system.cpu.dtb_walker_cache.blocked_cycles::no_mshrs            0                       # number of cycles access was blocked
system.cpu.dtb_walker_cache.blocked_cycles::no_targets            0                       # number of cycles access was blocked
system.cpu.dtb_walker_cache.blocked::no_mshrs            0                       # number of cycles access was blocked
system.cpu.dtb_walker_cache.blocked::no_targets            0                       # number of cycles access was blocked
system.cpu.dtb_walker_cache.avg_blocked_cycles::no_mshrs          nan                       # average number of cycles each access was blocked
system.cpu.dtb_walker_cache.avg_blocked_cycles::no_targets          nan                       # average number of cycles each access was blocked
system.cpu.dtb_walker_cache.fast_writes             0                       # number of fast writes performed
system.cpu.dtb_walker_cache.cache_copies            0                       # number of cache copies performed
system.cpu.dtb_walker_cache.no_allocate_misses            0                       # Number of misses that were no-allocate
system.cpu.icache.tags.replacements              7623                       # number of replacements
system.cpu.icache.tags.tagsinuse          1859.200196                       # Cycle average of tags in use
system.cpu.icache.tags.total_refs           695968580                       # Total number of references to valid blocks.
system.cpu.icache.tags.sampled_refs              9485                       # Sample count of references to valid blocks.
system.cpu.icache.tags.avg_refs          73375.706906                       # Average number of references to valid blocks.
system.cpu.icache.tags.warmup_cycle                 0                       # Cycle when the warmup percentage was hit.
system.cpu.icache.tags.occ_blocks::cpu.inst  1859.200196                       # Average occupied blocks per requestor
system.cpu.icache.tags.occ_percent::cpu.inst     0.453906                       # Average percentage of cache occupancy
system.cpu.icache.tags.occ_percent::total     0.453906                       # Average percentage of cache occupancy
system.cpu.icache.tags.occ_task_id_blocks::1024         1862                       # Occupied blocks per task id
system.cpu.icache.tags.age_task_id_blocks_1024::2            9                       # Occupied blocks per task id
system.cpu.icache.tags.age_task_id_blocks_1024::3            2                       # Occupied blocks per task id
system.cpu.icache.tags.age_task_id_blocks_1024::4         1851                       # Occupied blocks per task id
system.cpu.icache.tags.occ_task_id_percent::1024     0.454590                       # Percentage of cache occupancy per task id
system.cpu.icache.tags.tag_accesses         695987550                       # Number of tag accesses
system.cpu.icache.tags.data_accesses        695987550                       # Number of data accesses
system.cpu.icache.ReadReq_hits::cpu.inst    695968580                       # number of ReadReq hits
system.cpu.icache.ReadReq_hits::total       695968580                       # number of ReadReq hits
system.cpu.icache.demand_hits::cpu.inst     695968580                       # number of demand (read+write) hits
system.cpu.icache.demand_hits::total        695968580                       # number of demand (read+write) hits
system.cpu.icache.overall_hits::cpu.inst    695968580                       # number of overall hits
system.cpu.icache.overall_hits::total       695968580                       # number of overall hits
system.cpu.icache.ReadReq_misses::cpu.inst         9485                       # number of ReadReq misses
system.cpu.icache.ReadReq_misses::total          9485                       # number of ReadReq misses
system.cpu.icache.demand_misses::cpu.inst         9485                       # number of demand (read+write) misses
system.cpu.icache.demand_misses::total           9485                       # number of demand (read+write) misses
system.cpu.icache.overall_misses::cpu.inst         9485                       # number of overall misses
system.cpu.icache.overall_misses::total          9485                       # number of overall misses
system.cpu.icache.ReadReq_miss_latency::cpu.inst    269107000                       # number of ReadReq miss cycles
system.cpu.icache.ReadReq_miss_latency::total    269107000                       # number of ReadReq miss cycles
system.cpu.icache.demand_miss_latency::cpu.inst    269107000                       # number of demand (read+write) miss cycles
system.cpu.icache.demand_miss_latency::total    269107000                       # number of demand (read+write) miss cycles
system.cpu.icache.overall_miss_latency::cpu.inst    269107000                       # number of overall miss cycles
system.cpu.icache.overall_miss_latency::total    269107000                       # number of overall miss cycles
system.cpu.icache.ReadReq_accesses::cpu.inst    695978065                       # number of ReadReq accesses(hits+misses)
system.cpu.icache.ReadReq_accesses::total    695978065                       # number of ReadReq accesses(hits+misses)
system.cpu.icache.demand_accesses::cpu.inst    695978065                       # number of demand (read+write) accesses
system.cpu.icache.demand_accesses::total    695978065                       # number of demand (read+write) accesses
system.cpu.icache.overall_accesses::cpu.inst    695978065                       # number of overall (read+write) accesses
system.cpu.icache.overall_accesses::total    695978065                       # number of overall (read+write) accesses
system.cpu.icache.ReadReq_miss_rate::cpu.inst     0.000014                       # miss rate for ReadReq accesses
system.cpu.icache.ReadReq_miss_rate::total     0.000014                       # miss rate for ReadReq accesses
system.cpu.icache.demand_miss_rate::cpu.inst     0.000014                       # miss rate for demand accesses
system.cpu.icache.demand_miss_rate::total     0.000014                       # miss rate for demand accesses
system.cpu.icache.overall_miss_rate::cpu.inst     0.000014                       # miss rate for overall accesses
system.cpu.icache.overall_miss_rate::total     0.000014                       # miss rate for overall accesses
system.cpu.icache.ReadReq_avg_miss_latency::cpu.inst 28371.850290                       # average ReadReq miss latency
system.cpu.icache.ReadReq_avg_miss_latency::total 28371.850290                       # average ReadReq miss latency
system.cpu.icache.demand_avg_miss_latency::cpu.inst 28371.850290                       # average overall miss latency
system.cpu.icache.demand_avg_miss_latency::total 28371.850290                       # average overall miss latency
system.cpu.icache.overall_avg_miss_latency::cpu.inst 28371.850290                       # average overall miss latency
system.cpu.icache.overall_avg_miss_latency::total 28371.850290                       # average overall miss latency
system.cpu.icache.blocked_cycles::no_mshrs            0                       # number of cycles access was blocked
system.cpu.icache.blocked_cycles::no_targets            0                       # number of cycles access was blocked
system.cpu.icache.blocked::no_mshrs                 0                       # number of cycles access was blocked
system.cpu.icache.blocked::no_targets               0                       # number of cycles access was blocked
system.cpu.icache.avg_blocked_cycles::no_mshrs          nan                       # average number of cycles each access was blocked
system.cpu.icache.avg_blocked_cycles::no_targets          nan                       # average number of cycles each access was blocked
system.cpu.icache.fast_writes                       0                       # number of fast writes performed
system.cpu.icache.cache_copies                      0                       # number of cache copies performed
system.cpu.icache.writebacks::writebacks         7623                       # number of writebacks
system.cpu.icache.writebacks::total              7623                       # number of writebacks
system.cpu.icache.ReadReq_mshr_misses::cpu.inst         9485                       # number of ReadReq MSHR misses
system.cpu.icache.ReadReq_mshr_misses::total         9485                       # number of ReadReq MSHR misses
system.cpu.icache.demand_mshr_misses::cpu.inst         9485                       # number of demand (read+write) MSHR misses
system.cpu.icache.demand_mshr_misses::total         9485                       # number of demand (read+write) MSHR misses
system.cpu.icache.overall_mshr_misses::cpu.inst         9485                       # number of overall MSHR misses
system.cpu.icache.overall_mshr_misses::total         9485                       # number of overall MSHR misses
system.cpu.icache.ReadReq_mshr_miss_latency::cpu.inst    259622000                       # number of ReadReq MSHR miss cycles
system.cpu.icache.ReadReq_mshr_miss_latency::total    259622000                       # number of ReadReq MSHR miss cycles
system.cpu.icache.demand_mshr_miss_latency::cpu.inst    259622000                       # number of demand (read+write) MSHR miss cycles
system.cpu.icache.demand_mshr_miss_latency::total    259622000                       # number of demand (read+write) MSHR miss cycles
system.cpu.icache.overall_mshr_miss_latency::cpu.inst    259622000                       # number of overall MSHR miss cycles
system.cpu.icache.overall_mshr_miss_latency::total    259622000                       # number of overall MSHR miss cycles
system.cpu.icache.ReadReq_mshr_miss_rate::cpu.inst     0.000014                       # mshr miss rate for ReadReq accesses
system.cpu.icache.ReadReq_mshr_miss_rate::total     0.000014                       # mshr miss rate for ReadReq accesses
system.cpu.icache.demand_mshr_miss_rate::cpu.inst     0.000014                       # mshr miss rate for demand accesses
system.cpu.icache.demand_mshr_miss_rate::total     0.000014                       # mshr miss rate for demand accesses
system.cpu.icache.overall_mshr_miss_rate::cpu.inst     0.000014                       # mshr miss rate for overall accesses
system.cpu.icache.overall_mshr_miss_rate::total     0.000014                       # mshr miss rate for overall accesses
system.cpu.icache.ReadReq_avg_mshr_miss_latency::cpu.inst 27371.850290                       # average ReadReq mshr miss latency
system.cpu.icache.ReadReq_avg_mshr_miss_latency::total 27371.850290                       # average ReadReq mshr miss latency
system.cpu.icache.demand_avg_mshr_miss_latency::cpu.inst 27371.850290                       # average overall mshr miss latency
system.cpu.icache.demand_avg_mshr_miss_latency::total 27371.850290                       # average overall mshr miss latency
system.cpu.icache.overall_avg_mshr_miss_latency::cpu.inst 27371.850290                       # average overall mshr miss latency
system.cpu.icache.overall_avg_mshr_miss_latency::total 27371.850290                       # average overall mshr miss latency
system.cpu.icache.no_allocate_misses                0                       # Number of misses that were no-allocate
system.cpu.itb_walker_cache.tags.replacements            0                       # number of replacements
system.cpu.itb_walker_cache.tags.tagsinuse            0                       # Cycle average of tags in use
system.cpu.itb_walker_cache.tags.total_refs            0                       # Total number of references to valid blocks.
system.cpu.itb_walker_cache.tags.sampled_refs            0                       # Sample count of references to valid blocks.
system.cpu.itb_walker_cache.tags.avg_refs          nan                       # Average number of references to valid blocks.
system.cpu.itb_walker_cache.tags.warmup_cycle            0                       # Cycle when the warmup percentage was hit.
system.cpu.itb_walker_cache.tags.tag_accesses            0                       # Number of tag accesses
system.cpu.itb_walker_cache.tags.data_accesses            0                       # Number of data accesses
system.cpu.itb_walker_cache.blocked_cycles::no_mshrs            0                       # number of cycles access was blocked
system.cpu.itb_walker_cache.blocked_cycles::no_targets            0                       # number of cycles access was blocked
system.cpu.itb_walker_cache.blocked::no_mshrs            0                       # number of cycles access was blocked
system.cpu.itb_walker_cache.blocked::no_targets            0                       # number of cycles access was blocked
system.cpu.itb_walker_cache.avg_blocked_cycles::no_mshrs          nan                       # average number of cycles each access was blocked
system.cpu.itb_walker_cache.avg_blocked_cycles::no_targets          nan                       # average number of cycles each access was blocked
system.cpu.itb_walker_cache.fast_writes             0                       # number of fast writes performed
system.cpu.itb_walker_cache.cache_copies            0                       # number of cache copies performed
system.cpu.itb_walker_cache.no_allocate_misses            0                       # Number of misses that were no-allocate
system.l2.tags.replacements                       627                       # number of replacements
system.l2.tags.tagsinuse                 10355.141563                       # Cycle average of tags in use
system.l2.tags.total_refs                     1288630                       # Total number of references to valid blocks.
system.l2.tags.sampled_refs                     11701                       # Sample count of references to valid blocks.
system.l2.tags.avg_refs                    110.129903                       # Average number of references to valid blocks.
system.l2.tags.warmup_cycle                         0                       # Cycle when the warmup percentage was hit.
system.l2.tags.occ_blocks::writebacks     7585.240470                       # Average occupied blocks per requestor
system.l2.tags.occ_blocks::cpu.inst       1821.383064                       # Average occupied blocks per requestor
system.l2.tags.occ_blocks::cpu.data        948.518029                       # Average occupied blocks per requestor
system.l2.tags.occ_percent::writebacks       0.231483                       # Average percentage of cache occupancy
system.l2.tags.occ_percent::cpu.inst         0.055584                       # Average percentage of cache occupancy
system.l2.tags.occ_percent::cpu.data         0.028946                       # Average percentage of cache occupancy
system.l2.tags.occ_percent::total            0.316014                       # Average percentage of cache occupancy
system.l2.tags.occ_task_id_blocks::1024         11074                       # Occupied blocks per task id
system.l2.tags.age_task_id_blocks_1024::0            6                       # Occupied blocks per task id
system.l2.tags.age_task_id_blocks_1024::1           39                       # Occupied blocks per task id
system.l2.tags.age_task_id_blocks_1024::2          343                       # Occupied blocks per task id
system.l2.tags.age_task_id_blocks_1024::3         1070                       # Occupied blocks per task id
system.l2.tags.age_task_id_blocks_1024::4         9616                       # Occupied blocks per task id
system.l2.tags.occ_task_id_percent::1024     0.337952                       # Percentage of cache occupancy per task id
system.l2.tags.tag_accesses                   2719611                       # Number of tag accesses
system.l2.tags.data_accesses                  2719611                       # Number of data accesses
system.l2.WritebackDirty_hits::writebacks      1040496                       # number of WritebackDirty hits
system.l2.WritebackDirty_hits::total          1040496                       # number of WritebackDirty hits
system.l2.WritebackClean_hits::writebacks         7623                       # number of WritebackClean hits
system.l2.WritebackClean_hits::total             7623                       # number of WritebackClean hits
system.l2.ReadExReq_hits::cpu.data             584542                       # number of ReadExReq hits
system.l2.ReadExReq_hits::total                584542                       # number of ReadExReq hits
system.l2.ReadCleanReq_hits::cpu.inst            7212                       # number of ReadCleanReq hits
system.l2.ReadCleanReq_hits::total               7212                       # number of ReadCleanReq hits
system.l2.ReadSharedReq_hits::cpu.data         454080                       # number of ReadSharedReq hits
system.l2.ReadSharedReq_hits::total            454080                       # number of ReadSharedReq hits
system.l2.demand_hits::cpu.inst                  7212                       # number of demand (read+write) hits
system.l2.demand_hits::cpu.data               1038622                       # number of demand (read+write) hits
system.l2.demand_hits::total                  1045834                       # number of demand (read+write) hits
system.l2.overall_hits::cpu.inst                 7212                       # number of overall hits
system.l2.overall_hits::cpu.data              1038622                       # number of overall hits
system.l2.overall_hits::total                 1045834                       # number of overall hits
system.l2.ReadExReq_misses::cpu.data             8714                       # number of ReadExReq misses
system.l2.ReadExReq_misses::total                8714                       # number of ReadExReq misses
system.l2.ReadCleanReq_misses::cpu.inst          2273                       # number of ReadCleanReq misses
system.l2.ReadCleanReq_misses::total             2273                       # number of ReadCleanReq misses
system.l2.ReadSharedReq_misses::cpu.data         2461                       # number of ReadSharedReq misses
system.l2.ReadSharedReq_misses::total            2461                       # number of ReadSharedReq misses
system.l2.demand_misses::cpu.inst                2273                       # number of demand (read+write) misses
system.l2.demand_misses::cpu.data               11175                       # number of demand (read+write) misses
system.l2.demand_misses::total                  13448                       # number of demand (read+write) misses
system.l2.overall_misses::cpu.inst               2273                       # number of overall misses
system.l2.overall_misses::cpu.data              11175                       # number of overall misses
system.l2.overall_misses::total                 13448                       # number of overall misses
system.l2.ReadExReq_miss_latency::cpu.data    663460500                       # number of ReadExReq miss cycles
system.l2.ReadExReq_miss_latency::total     663460500                       # number of ReadExReq miss cycles
system.l2.ReadCleanReq_miss_latency::cpu.inst    169668500                       # number of ReadCleanReq miss cycles
system.l2.ReadCleanReq_miss_latency::total    169668500                       # number of ReadCleanReq miss cycles
system.l2.ReadSharedReq_miss_latency::cpu.data    185589000                       # number of ReadSharedReq miss cycles
system.l2.ReadSharedReq_miss_latency::total    185589000                       # number of ReadSharedReq miss cycles
system.l2.demand_miss_latency::cpu.inst     169668500                       # number of demand (read+write) miss cycles
system.l2.demand_miss_latency::cpu.data     849049500                       # number of demand (read+write) miss cycles
system.l2.demand_miss_latency::total       1018718000                       # number of demand (read+write) miss cycles
system.l2.overall_miss_latency::cpu.inst    169668500                       # number of overall miss cycles
system.l2.overall_miss_latency::cpu.data    849049500                       # number of overall miss cycles
system.l2.overall_miss_latency::total      1018718000                       # number of overall miss cycles
system.l2.WritebackDirty_accesses::writebacks      1040496                       # number of WritebackDirty accesses(hits+misses)
system.l2.WritebackDirty_accesses::total      1040496                       # number of WritebackDirty accesses(hits+misses)
system.l2.WritebackClean_accesses::writebacks         7623                       # number of WritebackClean accesses(hits+misses)
system.l2.WritebackClean_accesses::total         7623                       # number of WritebackClean accesses(hits+misses)
system.l2.ReadExReq_accesses::cpu.data         593256                       # number of ReadExReq accesses(hits+misses)
system.l2.ReadExReq_accesses::total            593256                       # number of ReadExReq accesses(hits+misses)
system.l2.ReadCleanReq_accesses::cpu.inst         9485                       # number of ReadCleanReq accesses(hits+misses)
system.l2.ReadCleanReq_accesses::total           9485                       # number of ReadCleanReq accesses(hits+misses)
system.l2.ReadSharedReq_accesses::cpu.data       456541                       # number of ReadSharedReq accesses(hits+misses)
system.l2.ReadSharedReq_accesses::total        456541                       # number of ReadSharedReq accesses(hits+misses)
system.l2.demand_accesses::cpu.inst              9485                       # number of demand (read+write) accesses
system.l2.demand_accesses::cpu.data           1049797                       # number of demand (read+write) accesses
system.l2.demand_accesses::total              1059282                       # number of demand (read+write) accesses
system.l2.overall_accesses::cpu.inst             9485                       # number of overall (read+write) accesses
system.l2.overall_accesses::cpu.data          1049797                       # number of overall (read+write) accesses
system.l2.overall_accesses::total             1059282                       # number of overall (read+write) accesses
system.l2.ReadExReq_miss_rate::cpu.data      0.014688                       # miss rate for ReadExReq accesses
system.l2.ReadExReq_miss_rate::total         0.014688                       # miss rate for ReadExReq accesses
system.l2.ReadCleanReq_miss_rate::cpu.inst     0.239642                       # miss rate for ReadCleanReq accesses
system.l2.ReadCleanReq_miss_rate::total      0.239642                       # miss rate for ReadCleanReq accesses
system.l2.ReadSharedReq_miss_rate::cpu.data     0.005391                       # miss rate for ReadSharedReq accesses
system.l2.ReadSharedReq_miss_rate::total     0.005391                       # miss rate for ReadSharedReq accesses
system.l2.demand_miss_rate::cpu.inst         0.239642                       # miss rate for demand accesses
system.l2.demand_miss_rate::cpu.data         0.010645                       # miss rate for demand accesses
system.l2.demand_miss_rate::total            0.012695                       # miss rate for demand accesses
system.l2.overall_miss_rate::cpu.inst        0.239642                       # miss rate for overall accesses
system.l2.overall_miss_rate::cpu.data        0.010645                       # miss rate for overall accesses
system.l2.overall_miss_rate::total           0.012695                       # miss rate for overall accesses
system.l2.ReadExReq_avg_miss_latency::cpu.data 76137.307781                       # average ReadExReq miss latency
system.l2.ReadExReq_avg_miss_latency::total 76137.307781                       # average ReadExReq miss latency
system.l2.ReadCleanReq_avg_miss_latency::cpu.inst 74645.182578                       # average ReadCleanReq miss latency
system.l2.ReadCleanReq_avg_miss_latency::total 74645.182578                       # average ReadCleanReq miss latency
system.l2.ReadSharedReq_avg_miss_latency::cpu.data 75412.027631                       # average ReadSharedReq miss latency
system.l2.ReadSharedReq_avg_miss_latency::total 75412.027631                       # average ReadSharedReq miss latency
system.l2.demand_avg_miss_latency::cpu.inst 74645.182578                       # average overall miss latency
system.l2.demand_avg_miss_latency::cpu.data 75977.583893                       # average overall miss latency
system.l2.demand_avg_miss_latency::total 75752.379536                       # average overall miss latency
system.l2.overall_avg_miss_latency::cpu.inst 74645.182578                       # average overall miss latency
system.l2.overall_avg_miss_latency::cpu.data 75977.583893                       # average overall miss latency
system.l2.overall_avg_miss_latency::total 75752.379536                       # average overall miss latency
system.l2.blocked_cycles::no_mshrs                  0                       # number of cycles access was blocked
system.l2.blocked_cycles::no_targets                0                       # number of cycles access was blocked
system.l2.blocked::no_mshrs                         0                       # number of cycles access was blocked
system.l2.blocked::no_targets                       0                       # number of cycles access was blocked
system.l2.avg_blocked_cycles::no_mshrs            nan                       # average number of cycles each access was blocked
system.l2.avg_blocked_cycles::no_targets          nan                       # average number of cycles each access was blocked
system.l2.fast_writes                               0                       # number of fast writes performed
system.l2.cache_copies                              0                       # number of cache copies performed
system.l2.writebacks::writebacks                   32                       # number of writebacks
system.l2.writebacks::total                        32                       # number of writebacks
system.l2.CleanEvict_mshr_misses::writebacks            9                       # number of CleanEvict MSHR misses
system.l2.CleanEvict_mshr_misses::total             9                       # number of CleanEvict MSHR misses
system.l2.ReadExReq_mshr_misses::cpu.data         8714                       # number of ReadExReq MSHR misses
system.l2.ReadExReq_mshr_misses::total           8714                       # number of ReadExReq MSHR misses
system.l2.ReadCleanReq_mshr_misses::cpu.inst         2273                       # number of ReadCleanReq MSHR misses
system.l2.ReadCleanReq_mshr_misses::total         2273                       # number of ReadCleanReq MSHR misses
system.l2.ReadSharedReq_mshr_misses::cpu.data         2461                       # number of ReadSharedReq MSHR misses
system.l2.ReadSharedReq_mshr_misses::total         2461                       # number of ReadSharedReq MSHR misses
system.l2.demand_mshr_misses::cpu.inst           2273                       # number of demand (read+write) MSHR misses
system.l2.demand_mshr_misses::cpu.data          11175                       # number of demand (read+write) MSHR misses
system.l2.demand_mshr_misses::total             13448                       # number of demand (read+write) MSHR misses
system.l2.overall_mshr_misses::cpu.inst          2273                       # number of overall MSHR misses
system.l2.overall_mshr_misses::cpu.data         11175                       # number of overall MSHR misses
system.l2.overall_mshr_misses::total            13448                       # number of overall MSHR misses
system.l2.ReadExReq_mshr_miss_latency::cpu.data    576320500                       # number of ReadExReq MSHR miss cycles
system.l2.ReadExReq_mshr_miss_latency::total    576320500                       # number of ReadExReq MSHR miss cycles
system.l2.ReadCleanReq_mshr_miss_latency::cpu.inst    146938500                       # number of ReadCleanReq MSHR miss cycles
system.l2.ReadCleanReq_mshr_miss_latency::total    146938500                       # number of ReadCleanReq MSHR miss cycles
system.l2.ReadSharedReq_mshr_miss_latency::cpu.data    160979000                       # number of ReadSharedReq MSHR miss cycles
system.l2.ReadSharedReq_mshr_miss_latency::total    160979000                       # number of ReadSharedReq MSHR miss cycles
system.l2.demand_mshr_miss_latency::cpu.inst    146938500                       # number of demand (read+write) MSHR miss cycles
system.l2.demand_mshr_miss_latency::cpu.data    737299500                       # number of demand (read+write) MSHR miss cycles
system.l2.demand_mshr_miss_latency::total    884238000                       # number of demand (read+write) MSHR miss cycles
system.l2.overall_mshr_miss_latency::cpu.inst    146938500                       # number of overall MSHR miss cycles
system.l2.overall_mshr_miss_latency::cpu.data    737299500                       # number of overall MSHR miss cycles
system.l2.overall_mshr_miss_latency::total    884238000                       # number of overall MSHR miss cycles
system.l2.CleanEvict_mshr_miss_rate::writebacks          inf                       # mshr miss rate for CleanEvict accesses
system.l2.CleanEvict_mshr_miss_rate::total          inf                       # mshr miss rate for CleanEvict accesses
system.l2.ReadExReq_mshr_miss_rate::cpu.data     0.014688                       # mshr miss rate for ReadExReq accesses
system.l2.ReadExReq_mshr_miss_rate::total     0.014688                       # mshr miss rate for ReadExReq accesses
system.l2.ReadCleanReq_mshr_miss_rate::cpu.inst     0.239642                       # mshr miss rate for ReadCleanReq accesses
system.l2.ReadCleanReq_mshr_miss_rate::total     0.239642                       # mshr miss rate for ReadCleanReq accesses
system.l2.ReadSharedReq_mshr_miss_rate::cpu.data     0.005391                       # mshr miss rate for ReadSharedReq accesses
system.l2.ReadSharedReq_mshr_miss_rate::total     0.005391                       # mshr miss rate for ReadSharedReq accesses
system.l2.demand_mshr_miss_rate::cpu.inst     0.239642                       # mshr miss rate for demand accesses
system.l2.demand_mshr_miss_rate::cpu.data     0.010645                       # mshr miss rate for demand accesses
system.l2.demand_mshr_miss_rate::total       0.012695                       # mshr miss rate for demand accesses
system.l2.overall_mshr_miss_rate::cpu.inst     0.239642                       # mshr miss rate for overall accesses
system.l2.overall_mshr_miss_rate::cpu.data     0.010645                       # mshr miss rate for overall accesses
system.l2.overall_mshr_miss_rate::total      0.012695                       # mshr miss rate for overall accesses
system.l2.ReadExReq_avg_mshr_miss_latency::cpu.data 66137.307781                       # average ReadExReq mshr miss latency
system.l2.ReadExReq_avg_mshr_miss_latency::total 66137.307781                       # average ReadExReq mshr miss latency
system.l2.ReadCleanReq_avg_mshr_miss_latency::cpu.inst 64645.182578                       # average ReadCleanReq mshr miss latency
system.l2.ReadCleanReq_avg_mshr_miss_latency::total 64645.182578                       # average ReadCleanReq mshr miss latency
system.l2.ReadSharedReq_avg_mshr_miss_latency::cpu.data 65412.027631                       # average ReadSharedReq mshr miss latency
system.l2.ReadSharedReq_avg_mshr_miss_latency::total 65412.027631                       # average ReadSharedReq mshr miss latency
system.l2.demand_avg_mshr_miss_latency::cpu.inst 64645.182578                       # average overall mshr miss latency
system.l2.demand_avg_mshr_miss_latency::cpu.data 65977.583893                       # average overall mshr miss latency
system.l2.demand_avg_mshr_miss_latency::total 65752.379536                       # average overall mshr miss latency
system.l2.overall_avg_mshr_miss_latency::cpu.inst 64645.182578                       # average overall mshr miss latency
system.l2.overall_avg_mshr_miss_latency::cpu.data 65977.583893                       # average overall mshr miss latency
system.l2.overall_avg_mshr_miss_latency::total 65752.379536                       # average overall mshr miss latency
system.l2.no_allocate_misses                        0                       # Number of misses that were no-allocate
system.membus.trans_dist::ReadResp               4734                       # Transaction distribution
system.membus.trans_dist::WritebackDirty           32                       # Transaction distribution
system.membus.trans_dist::CleanEvict              214                       # Transaction distribution
system.membus.trans_dist::ReadExReq              8714                       # Transaction distribution
system.membus.trans_dist::ReadExResp             8714                       # Transaction distribution
system.membus.trans_dist::ReadSharedReq          4734                       # Transaction distribution
system.membus.pkt_count_system.l2.mem_side::system.mem_ctrls.port        27142                       # Packet count per connected master and slave (bytes)
system.membus.pkt_count_system.l2.mem_side::total        27142                       # Packet count per connected master and slave (bytes)
system.membus.pkt_count::total                  27142                       # Packet count per connected master and slave (bytes)
system.membus.pkt_size_system.l2.mem_side::system.mem_ctrls.port       431360                       # Cumulative packet size per connected master and slave (bytes)
system.membus.pkt_size_system.l2.mem_side::total       431360                       # Cumulative packet size per connected master and slave (bytes)
system.membus.pkt_size::total                  431360                       # Cumulative packet size per connected master and slave (bytes)
system.membus.snoops                                0                       # Total snoops (count)
system.membus.snoop_fanout::samples             13694                       # Request fanout histogram
system.membus.snoop_fanout::mean                    0                       # Request fanout histogram
system.membus.snoop_fanout::stdev                   0                       # Request fanout histogram
system.membus.snoop_fanout::underflows              0      0.00%      0.00% # Request fanout histogram
system.membus.snoop_fanout::0                   13694    100.00%    100.00% # Request fanout histogram
system.membus.snoop_fanout::1                       0      0.00%    100.00% # Request fanout histogram
system.membus.snoop_fanout::overflows               0      0.00%    100.00% # Request fanout histogram
system.membus.snoop_fanout::min_value               0                       # Request fanout histogram
system.membus.snoop_fanout::max_value               0                       # Request fanout histogram
system.membus.snoop_fanout::total               13694                       # Request fanout histogram
system.membus.reqLayer2.occupancy            13868000                       # Layer occupancy (ticks)
system.membus.reqLayer2.utilization               0.0                       # Layer utilization (%)
system.membus.respLayer1.occupancy           44570500                       # Layer occupancy (ticks)
system.membus.respLayer1.utilization              0.0                       # Layer utilization (%)
system.tol2bus.snoop_filter.tot_requests      2114654                       # Total number of requests made to the snoop filter.
system.tol2bus.snoop_filter.hit_single_requests      1055372                       # Number of requests hitting in the snoop filter with a single holder of the requested data.
system.tol2bus.snoop_filter.hit_multi_requests            0                       # Number of requests hitting in the snoop filter with multiple (>1) holders of the requested data.
system.tol2bus.snoop_filter.tot_snoops            390                       # Total number of snoops made to the snoop filter.
system.tol2bus.snoop_filter.hit_single_snoops          390                       # Number of snoops hitting in the snoop filter with a single holder of the requested data.
system.tol2bus.snoop_filter.hit_multi_snoops            0                       # Number of snoops hitting in the snoop filter with multiple (>1) holders of the requested data.
system.tol2bus.trans_dist::ReadResp            466026                       # Transaction distribution
system.tol2bus.trans_dist::WritebackDirty      1040528                       # Transaction distribution
system.tol2bus.trans_dist::WritebackClean         7623                       # Transaction distribution
system.tol2bus.trans_dist::CleanEvict            7848                       # Transaction distribution
system.tol2bus.trans_dist::ReadExReq           593256                       # Transaction distribution
system.tol2bus.trans_dist::ReadExResp          593256                       # Transaction distribution
system.tol2bus.trans_dist::ReadCleanReq          9485                       # Transaction distribution
system.tol2bus.trans_dist::ReadSharedReq       456541                       # Transaction distribution
system.tol2bus.pkt_count_system.cpu.icache.mem_side::system.l2.cpu_side        26593                       # Packet count per connected master and slave (bytes)
system.tol2bus.pkt_count_system.cpu.dcache.mem_side::system.l2.cpu_side      3147343                       # Packet count per connected master and slave (bytes)
system.tol2bus.pkt_count::total               3173936                       # Packet count per connected master and slave (bytes)
system.tol2bus.pkt_size_system.cpu.icache.mem_side::system.l2.cpu_side       547456                       # Cumulative packet size per connected master and slave (bytes)
system.tol2bus.pkt_size_system.cpu.dcache.mem_side::system.l2.cpu_side     66889376                       # Cumulative packet size per connected master and slave (bytes)
system.tol2bus.pkt_size::total               67436832                       # Cumulative packet size per connected master and slave (bytes)
system.tol2bus.snoops                             627                       # Total snoops (count)
system.tol2bus.snoop_fanout::samples          1059909                       # Request fanout histogram
system.tol2bus.snoop_fanout::mean            0.000368                       # Request fanout histogram
system.tol2bus.snoop_fanout::stdev           0.019179                       # Request fanout histogram
system.tol2bus.snoop_fanout::underflows             0      0.00%      0.00% # Request fanout histogram
system.tol2bus.snoop_fanout::0                1059519     99.96%     99.96% # Request fanout histogram
system.tol2bus.snoop_fanout::1                    390      0.04%    100.00% # Request fanout histogram
system.tol2bus.snoop_fanout::2                      0      0.00%    100.00% # Request fanout histogram
system.tol2bus.snoop_fanout::3                      0      0.00%    100.00% # Request fanout histogram
system.tol2bus.snoop_fanout::4                      0      0.00%    100.00% # Request fanout histogram
system.tol2bus.snoop_fanout::overflows              0      0.00%    100.00% # Request fanout histogram
system.tol2bus.snoop_fanout::min_value              0                       # Request fanout histogram
system.tol2bus.snoop_fanout::max_value              1                       # Request fanout histogram
system.tol2bus.snoop_fanout::total            1059909                       # Request fanout histogram
system.tol2bus.reqLayer0.occupancy         1581386500                       # Layer occupancy (ticks)
system.tol2bus.reqLayer0.utilization              0.2                       # Layer utilization (%)
system.tol2bus.respLayer0.occupancy           9485000                       # Layer occupancy (ticks)
system.tol2bus.respLayer0.utilization             0.0                       # Layer utilization (%)
system.tol2bus.respLayer1.occupancy        1049797000                       # Layer occupancy (ticks)
system.tol2bus.respLayer1.utilization             0.1                       # Layer utilization (%)

---------- End Simulation Statistics   ----------
