
---------- Begin Simulation Statistics ----------
sim_seconds                                  0.954810                       # Number of seconds simulated
sim_ticks                                954809587500                       # Number of ticks simulated
final_tick                               954809587500                       # Number of ticks from beginning of simulation (restored from checkpoints and never reset)
sim_freq                                 1000000000000                       # Frequency of simulated ticks
host_inst_rate                                 793289                       # Simulator instruction rate (inst/s)
host_op_rate                                  1023177                       # Simulator op (including micro ops) rate (op/s)
host_tick_rate                             1514879251                       # Simulator tick rate (ticks/s)
host_mem_usage                                 835984                       # Number of bytes of host memory used
host_seconds                                   630.29                       # Real time elapsed on the host
sim_insts                                   500000000                       # Number of instructions simulated
sim_ops                                     644895733                       # Number of ops (including micro ops) simulated
system.voltage_domain.voltage                       1                       # Voltage in Volts
system.clk_domain.clock                          1000                       # Clock period in ticks
system.mem_ctrls.bytes_read::cpu.inst           72704                       # Number of bytes read from this memory
system.mem_ctrls.bytes_read::cpu.data          357408                       # Number of bytes read from this memory
system.mem_ctrls.bytes_read::total             430112                       # Number of bytes read from this memory
system.mem_ctrls.bytes_inst_read::cpu.inst        72704                       # Number of instructions bytes read from this memory
system.mem_ctrls.bytes_inst_read::total         72704                       # Number of instructions bytes read from this memory
system.mem_ctrls.bytes_written::writebacks          736                       # Number of bytes written to this memory
system.mem_ctrls.bytes_written::total             736                       # Number of bytes written to this memory
system.mem_ctrls.num_reads::cpu.inst             2272                       # Number of read requests responded to by this memory
system.mem_ctrls.num_reads::cpu.data            11169                       # Number of read requests responded to by this memory
system.mem_ctrls.num_reads::total               13441                       # Number of read requests responded to by this memory
system.mem_ctrls.num_writes::writebacks            23                       # Number of write requests responded to by this memory
system.mem_ctrls.num_writes::total                 23                       # Number of write requests responded to by this memory
system.mem_ctrls.bw_read::cpu.inst              76145                       # Total read bandwidth from this memory (bytes/s)
system.mem_ctrls.bw_read::cpu.data             374324                       # Total read bandwidth from this memory (bytes/s)
system.mem_ctrls.bw_read::total                450469                       # Total read bandwidth from this memory (bytes/s)
system.mem_ctrls.bw_inst_read::cpu.inst         76145                       # Instruction read bandwidth from this memory (bytes/s)
system.mem_ctrls.bw_inst_read::total            76145                       # Instruction read bandwidth from this memory (bytes/s)
system.mem_ctrls.bw_write::writebacks             771                       # Write bandwidth from this memory (bytes/s)
system.mem_ctrls.bw_write::total                  771                       # Write bandwidth from this memory (bytes/s)
system.mem_ctrls.bw_total::writebacks             771                       # Total bandwidth to/from this memory (bytes/s)
system.mem_ctrls.bw_total::cpu.inst             76145                       # Total bandwidth to/from this memory (bytes/s)
system.mem_ctrls.bw_total::cpu.data            374324                       # Total bandwidth to/from this memory (bytes/s)
system.mem_ctrls.bw_total::total               451240                       # Total bandwidth to/from this memory (bytes/s)
system.mem_ctrls.readReqs                       13441                       # Number of read requests accepted
system.mem_ctrls.writeReqs                         23                       # Number of write requests accepted
system.mem_ctrls.readBursts                     13441                       # Number of DRAM read bursts, including those serviced by the write queue
system.mem_ctrls.writeBursts                       23                       # Number of DRAM write bursts, including those merged in the write queue
system.mem_ctrls.bytesReadDRAM                 860032                       # Total number of bytes read from DRAM
system.mem_ctrls.bytesReadWrQ                     192                       # Total number of bytes read from write queue
system.mem_ctrls.bytesWritten                       0                       # Total number of bytes written to DRAM
system.mem_ctrls.bytesReadSys                  430112                       # Total read bytes from the system interface side
system.mem_ctrls.bytesWrittenSys                  736                       # Total written bytes from the system interface side
system.mem_ctrls.servicedByWrQ                      3                       # Number of DRAM read bursts serviced by the write queue
system.mem_ctrls.mergedWrBursts                     5                       # Number of DRAM write bursts merged with an existing one
system.mem_ctrls.neitherReadNorWriteReqs          212                       # Number of requests that are neither read nor write
system.mem_ctrls.perBankRdBursts::0               605                       # Per bank write bursts
system.mem_ctrls.perBankRdBursts::1               674                       # Per bank write bursts
system.mem_ctrls.perBankRdBursts::2               820                       # Per bank write bursts
system.mem_ctrls.perBankRdBursts::3               610                       # Per bank write bursts
system.mem_ctrls.perBankRdBursts::4               892                       # Per bank write bursts
system.mem_ctrls.perBankRdBursts::5               778                       # Per bank write bursts
system.mem_ctrls.perBankRdBursts::6               659                       # Per bank write bursts
system.mem_ctrls.perBankRdBursts::7               785                       # Per bank write bursts
system.mem_ctrls.perBankRdBursts::8               926                       # Per bank write bursts
system.mem_ctrls.perBankRdBursts::9               959                       # Per bank write bursts
system.mem_ctrls.perBankRdBursts::10             1039                       # Per bank write bursts
system.mem_ctrls.perBankRdBursts::11             1136                       # Per bank write bursts
system.mem_ctrls.perBankRdBursts::12              949                       # Per bank write bursts
system.mem_ctrls.perBankRdBursts::13              884                       # Per bank write bursts
system.mem_ctrls.perBankRdBursts::14              852                       # Per bank write bursts
system.mem_ctrls.perBankRdBursts::15              870                       # Per bank write bursts
system.mem_ctrls.perBankWrBursts::0                 0                       # Per bank write bursts
system.mem_ctrls.perBankWrBursts::1                 0                       # Per bank write bursts
system.mem_ctrls.perBankWrBursts::2                 0                       # Per bank write bursts
system.mem_ctrls.perBankWrBursts::3                 0                       # Per bank write bursts
system.mem_ctrls.perBankWrBursts::4                 0                       # Per bank write bursts
system.mem_ctrls.perBankWrBursts::5                 0                       # Per bank write bursts
system.mem_ctrls.perBankWrBursts::6                 0                       # Per bank write bursts
system.mem_ctrls.perBankWrBursts::7                 0                       # Per bank write bursts
system.mem_ctrls.perBankWrBursts::8                 0                       # Per bank write bursts
system.mem_ctrls.perBankWrBursts::9                 0                       # Per bank write bursts
system.mem_ctrls.perBankWrBursts::10                0                       # Per bank write bursts
system.mem_ctrls.perBankWrBursts::11                0                       # Per bank write bursts
system.mem_ctrls.perBankWrBursts::12                0                       # Per bank write bursts
system.mem_ctrls.perBankWrBursts::13                0                       # Per bank write bursts
system.mem_ctrls.perBankWrBursts::14                0                       # Per bank write bursts
system.mem_ctrls.perBankWrBursts::15                0                       # Per bank write bursts
system.mem_ctrls.numRdRetry                         0                       # Number of times read queue was full causing retry
system.mem_ctrls.numWrRetry                         0                       # Number of times write queue was full causing retry
system.mem_ctrls.totGap                  340370433500                       # Total gap between requests
system.mem_ctrls.readPktSize::0                     0                       # Read request sizes (log2)
system.mem_ctrls.readPktSize::1                     0                       # Read request sizes (log2)
system.mem_ctrls.readPktSize::2                     0                       # Read request sizes (log2)
system.mem_ctrls.readPktSize::3                     0                       # Read request sizes (log2)
system.mem_ctrls.readPktSize::4                     0                       # Read request sizes (log2)
system.mem_ctrls.readPktSize::5                 13441                       # Read request sizes (log2)
system.mem_ctrls.readPktSize::6                     0                       # Read request sizes (log2)
system.mem_ctrls.writePktSize::0                    0                       # Write request sizes (log2)
system.mem_ctrls.writePktSize::1                    0                       # Write request sizes (log2)
system.mem_ctrls.writePktSize::2                    0                       # Write request sizes (log2)
system.mem_ctrls.writePktSize::3                    0                       # Write request sizes (log2)
system.mem_ctrls.writePktSize::4                    0                       # Write request sizes (log2)
system.mem_ctrls.writePktSize::5                   23                       # Write request sizes (log2)
system.mem_ctrls.writePktSize::6                    0                       # Write request sizes (log2)
system.mem_ctrls.rdQLenPdf::0                   12174                       # What read queue length does an incoming req see
system.mem_ctrls.rdQLenPdf::1                     647                       # What read queue length does an incoming req see
system.mem_ctrls.rdQLenPdf::2                     617                       # What read queue length does an incoming req see
system.mem_ctrls.rdQLenPdf::3                       0                       # What read queue length does an incoming req see
system.mem_ctrls.rdQLenPdf::4                       0                       # What read queue length does an incoming req see
system.mem_ctrls.rdQLenPdf::5                       0                       # What read queue length does an incoming req see
system.mem_ctrls.rdQLenPdf::6                       0                       # What read queue length does an incoming req see
system.mem_ctrls.rdQLenPdf::7                       0                       # What read queue length does an incoming req see
system.mem_ctrls.rdQLenPdf::8                       0                       # What read queue length does an incoming req see
system.mem_ctrls.rdQLenPdf::9                       0                       # What read queue length does an incoming req see
system.mem_ctrls.rdQLenPdf::10                      0                       # What read queue length does an incoming req see
system.mem_ctrls.rdQLenPdf::11                      0                       # What read queue length does an incoming req see
system.mem_ctrls.rdQLenPdf::12                      0                       # What read queue length does an incoming req see
system.mem_ctrls.rdQLenPdf::13                      0                       # What read queue length does an incoming req see
system.mem_ctrls.rdQLenPdf::14                      0                       # What read queue length does an incoming req see
system.mem_ctrls.rdQLenPdf::15                      0                       # What read queue length does an incoming req see
system.mem_ctrls.rdQLenPdf::16                      0                       # What read queue length does an incoming req see
system.mem_ctrls.rdQLenPdf::17                      0                       # What read queue length does an incoming req see
system.mem_ctrls.rdQLenPdf::18                      0                       # What read queue length does an incoming req see
system.mem_ctrls.rdQLenPdf::19                      0                       # What read queue length does an incoming req see
system.mem_ctrls.rdQLenPdf::20                      0                       # What read queue length does an incoming req see
system.mem_ctrls.rdQLenPdf::21                      0                       # What read queue length does an incoming req see
system.mem_ctrls.rdQLenPdf::22                      0                       # What read queue length does an incoming req see
system.mem_ctrls.rdQLenPdf::23                      0                       # What read queue length does an incoming req see
system.mem_ctrls.rdQLenPdf::24                      0                       # What read queue length does an incoming req see
system.mem_ctrls.rdQLenPdf::25                      0                       # What read queue length does an incoming req see
system.mem_ctrls.rdQLenPdf::26                      0                       # What read queue length does an incoming req see
system.mem_ctrls.rdQLenPdf::27                      0                       # What read queue length does an incoming req see
system.mem_ctrls.rdQLenPdf::28                      0                       # What read queue length does an incoming req see
system.mem_ctrls.rdQLenPdf::29                      0                       # What read queue length does an incoming req see
system.mem_ctrls.rdQLenPdf::30                      0                       # What read queue length does an incoming req see
system.mem_ctrls.rdQLenPdf::31                      0                       # What read queue length does an incoming req see
system.mem_ctrls.wrQLenPdf::0                       1                       # What write queue length does an incoming req see
system.mem_ctrls.wrQLenPdf::1                       1                       # What write queue length does an incoming req see
system.mem_ctrls.wrQLenPdf::2                       1                       # What write queue length does an incoming req see
system.mem_ctrls.wrQLenPdf::3                       1                       # What write queue length does an incoming req see
system.mem_ctrls.wrQLenPdf::4                       1                       # What write queue length does an incoming req see
system.mem_ctrls.wrQLenPdf::5                       1                       # What write queue length does an incoming req see
system.mem_ctrls.wrQLenPdf::6                       1                       # What write queue length does an incoming req see
system.mem_ctrls.wrQLenPdf::7                       1                       # What write queue length does an incoming req see
system.mem_ctrls.wrQLenPdf::8                       1                       # What write queue length does an incoming req see
system.mem_ctrls.wrQLenPdf::9                       1                       # What write queue length does an incoming req see
system.mem_ctrls.wrQLenPdf::10                      1                       # What write queue length does an incoming req see
system.mem_ctrls.wrQLenPdf::11                      1                       # What write queue length does an incoming req see
system.mem_ctrls.wrQLenPdf::12                      1                       # What write queue length does an incoming req see
system.mem_ctrls.wrQLenPdf::13                      1                       # What write queue length does an incoming req see
system.mem_ctrls.wrQLenPdf::14                      1                       # What write queue length does an incoming req see
system.mem_ctrls.wrQLenPdf::15                      1                       # What write queue length does an incoming req see
system.mem_ctrls.wrQLenPdf::16                      1                       # What write queue length does an incoming req see
system.mem_ctrls.wrQLenPdf::17                      1                       # What write queue length does an incoming req see
system.mem_ctrls.wrQLenPdf::18                      0                       # What write queue length does an incoming req see
system.mem_ctrls.wrQLenPdf::19                      0                       # What write queue length does an incoming req see
system.mem_ctrls.wrQLenPdf::20                      0                       # What write queue length does an incoming req see
system.mem_ctrls.wrQLenPdf::21                      0                       # What write queue length does an incoming req see
system.mem_ctrls.wrQLenPdf::22                      0                       # What write queue length does an incoming req see
system.mem_ctrls.wrQLenPdf::23                      0                       # What write queue length does an incoming req see
system.mem_ctrls.wrQLenPdf::24                      0                       # What write queue length does an incoming req see
system.mem_ctrls.wrQLenPdf::25                      0                       # What write queue length does an incoming req see
system.mem_ctrls.wrQLenPdf::26                      0                       # What write queue length does an incoming req see
system.mem_ctrls.wrQLenPdf::27                      0                       # What write queue length does an incoming req see
system.mem_ctrls.wrQLenPdf::28                      0                       # What write queue length does an incoming req see
system.mem_ctrls.wrQLenPdf::29                      0                       # What write queue length does an incoming req see
system.mem_ctrls.wrQLenPdf::30                      0                       # What write queue length does an incoming req see
system.mem_ctrls.wrQLenPdf::31                      0                       # What write queue length does an incoming req see
system.mem_ctrls.wrQLenPdf::32                      0                       # What write queue length does an incoming req see
system.mem_ctrls.wrQLenPdf::33                      0                       # What write queue length does an incoming req see
system.mem_ctrls.wrQLenPdf::34                      0                       # What write queue length does an incoming req see
system.mem_ctrls.wrQLenPdf::35                      0                       # What write queue length does an incoming req see
system.mem_ctrls.wrQLenPdf::36                      0                       # What write queue length does an incoming req see
system.mem_ctrls.wrQLenPdf::37                      0                       # What write queue length does an incoming req see
system.mem_ctrls.wrQLenPdf::38                      0                       # What write queue length does an incoming req see
system.mem_ctrls.wrQLenPdf::39                      0                       # What write queue length does an incoming req see
system.mem_ctrls.wrQLenPdf::40                      0                       # What write queue length does an incoming req see
system.mem_ctrls.wrQLenPdf::41                      0                       # What write queue length does an incoming req see
system.mem_ctrls.wrQLenPdf::42                      0                       # What write queue length does an incoming req see
system.mem_ctrls.wrQLenPdf::43                      0                       # What write queue length does an incoming req see
system.mem_ctrls.wrQLenPdf::44                      0                       # What write queue length does an incoming req see
system.mem_ctrls.wrQLenPdf::45                      0                       # What write queue length does an incoming req see
system.mem_ctrls.wrQLenPdf::46                      0                       # What write queue length does an incoming req see
system.mem_ctrls.wrQLenPdf::47                      0                       # What write queue length does an incoming req see
system.mem_ctrls.wrQLenPdf::48                      0                       # What write queue length does an incoming req see
system.mem_ctrls.wrQLenPdf::49                      0                       # What write queue length does an incoming req see
system.mem_ctrls.wrQLenPdf::50                      0                       # What write queue length does an incoming req see
system.mem_ctrls.wrQLenPdf::51                      0                       # What write queue length does an incoming req see
system.mem_ctrls.wrQLenPdf::52                      0                       # What write queue length does an incoming req see
system.mem_ctrls.wrQLenPdf::53                      0                       # What write queue length does an incoming req see
system.mem_ctrls.wrQLenPdf::54                      0                       # What write queue length does an incoming req see
system.mem_ctrls.wrQLenPdf::55                      0                       # What write queue length does an incoming req see
system.mem_ctrls.wrQLenPdf::56                      0                       # What write queue length does an incoming req see
system.mem_ctrls.wrQLenPdf::57                      0                       # What write queue length does an incoming req see
system.mem_ctrls.wrQLenPdf::58                      0                       # What write queue length does an incoming req see
system.mem_ctrls.wrQLenPdf::59                      0                       # What write queue length does an incoming req see
system.mem_ctrls.wrQLenPdf::60                      0                       # What write queue length does an incoming req see
system.mem_ctrls.wrQLenPdf::61                      0                       # What write queue length does an incoming req see
system.mem_ctrls.wrQLenPdf::62                      0                       # What write queue length does an incoming req see
system.mem_ctrls.wrQLenPdf::63                      0                       # What write queue length does an incoming req see
system.mem_ctrls.bytesPerActivate::samples         3184                       # Bytes accessed per row activation
system.mem_ctrls.bytesPerActivate::mean    270.110553                       # Bytes accessed per row activation
system.mem_ctrls.bytesPerActivate::gmean   166.735850                       # Bytes accessed per row activation
system.mem_ctrls.bytesPerActivate::stdev   317.598731                       # Bytes accessed per row activation
system.mem_ctrls.bytesPerActivate::0-127          744     23.37%     23.37% # Bytes accessed per row activation
system.mem_ctrls.bytesPerActivate::128-255         1652     51.88%     75.25% # Bytes accessed per row activation
system.mem_ctrls.bytesPerActivate::256-383          139      4.37%     79.62% # Bytes accessed per row activation
system.mem_ctrls.bytesPerActivate::384-511           87      2.73%     82.35% # Bytes accessed per row activation
system.mem_ctrls.bytesPerActivate::512-639           62      1.95%     84.30% # Bytes accessed per row activation
system.mem_ctrls.bytesPerActivate::640-767           55      1.73%     86.02% # Bytes accessed per row activation
system.mem_ctrls.bytesPerActivate::768-895           27      0.85%     86.87% # Bytes accessed per row activation
system.mem_ctrls.bytesPerActivate::896-1023           23      0.72%     87.59% # Bytes accessed per row activation
system.mem_ctrls.bytesPerActivate::1024-1151          395     12.41%    100.00% # Bytes accessed per row activation
system.mem_ctrls.bytesPerActivate::total         3184                       # Bytes accessed per row activation
system.mem_ctrls.totQLat                     95851000                       # Total ticks spent queuing
system.mem_ctrls.totMemAccLat               347813500                       # Total ticks spent from burst creation until serviced by the DRAM
system.mem_ctrls.totBusLat                   67190000                       # Total ticks spent in databus transfers
system.mem_ctrls.avgQLat                      7132.83                       # Average queueing delay per DRAM burst
system.mem_ctrls.avgBusLat                    5000.00                       # Average bus latency per DRAM burst
system.mem_ctrls.avgMemAccLat                25882.83                       # Average memory access latency per DRAM burst
system.mem_ctrls.avgRdBW                         0.90                       # Average DRAM read bandwidth in MiByte/s
system.mem_ctrls.avgWrBW                         0.00                       # Average achieved write bandwidth in MiByte/s
system.mem_ctrls.avgRdBWSys                      0.45                       # Average system read bandwidth in MiByte/s
system.mem_ctrls.avgWrBWSys                      0.00                       # Average system write bandwidth in MiByte/s
system.mem_ctrls.peakBW                      12800.00                       # Theoretical peak bandwidth in MiByte/s
system.mem_ctrls.busUtil                         0.01                       # Data bus utilization in percentage
system.mem_ctrls.busUtilRead                     0.01                       # Data bus utilization in percentage for reads
system.mem_ctrls.busUtilWrite                    0.00                       # Data bus utilization in percentage for writes
system.mem_ctrls.avgRdQLen                       1.00                       # Average read queue length when enqueuing
system.mem_ctrls.avgWrQLen                      16.81                       # Average write queue length when enqueuing
system.mem_ctrls.readRowHits                    10254                       # Number of row buffer hits during reads
system.mem_ctrls.writeRowHits                       0                       # Number of row buffer hits during writes
system.mem_ctrls.readRowHitRate                 76.31                       # Row buffer hit rate for reads
system.mem_ctrls.writeRowHitRate                 0.00                       # Row buffer hit rate for writes
system.mem_ctrls.avgGap                   25280038.14                       # Average gap between requests
system.mem_ctrls.pageHitRate                    76.20                       # Row buffer hit rate, read and write combined
system.mem_ctrls_0.actEnergy                 10788120                       # Energy for activate commands per rank (pJ)
system.mem_ctrls_0.preEnergy                  5886375                       # Energy for precharge commands per rank (pJ)
system.mem_ctrls_0.readEnergy                45419400                       # Energy for read commands per rank (pJ)
system.mem_ctrls_0.writeEnergy                      0                       # Energy for write commands per rank (pJ)
system.mem_ctrls_0.refreshEnergy          62363187120                       # Energy for refresh commands per rank (pJ)
system.mem_ctrls_0.actBackEnergy          23357313225                       # Energy for active background per rank (pJ)
system.mem_ctrls_0.preBackEnergy         552393963750                       # Energy for precharge background per rank (pJ)
system.mem_ctrls_0.totalEnergy           638176557990                       # Total energy per rank (pJ)
system.mem_ctrls_0.averagePower            668.384374                       # Core power per rank (mW)
system.mem_ctrls_0.memoryStateTime::IDLE 918958340500                       # Time in different power states
system.mem_ctrls_0.memoryStateTime::REF   31883020000                       # Time in different power states
system.mem_ctrls_0.memoryStateTime::PRE_PDN            0                       # Time in different power states
system.mem_ctrls_0.memoryStateTime::ACT    3963378250                       # Time in different power states
system.mem_ctrls_0.memoryStateTime::ACT_PDN            0                       # Time in different power states
system.mem_ctrls_1.actEnergy                 13282920                       # Energy for activate commands per rank (pJ)
system.mem_ctrls_1.preEnergy                  7247625                       # Energy for precharge commands per rank (pJ)
system.mem_ctrls_1.readEnergy                59397000                       # Energy for read commands per rank (pJ)
system.mem_ctrls_1.writeEnergy                      0                       # Energy for write commands per rank (pJ)
system.mem_ctrls_1.refreshEnergy          62363187120                       # Energy for refresh commands per rank (pJ)
system.mem_ctrls_1.actBackEnergy          23785193700                       # Energy for active background per rank (pJ)
system.mem_ctrls_1.preBackEnergy         552018630000                       # Energy for precharge background per rank (pJ)
system.mem_ctrls_1.totalEnergy           638246938365                       # Total energy per rank (pJ)
system.mem_ctrls_1.averagePower            668.458085                       # Core power per rank (mW)
system.mem_ctrls_1.memoryStateTime::IDLE 918331981500                       # Time in different power states
system.mem_ctrls_1.memoryStateTime::REF   31883020000                       # Time in different power states
system.mem_ctrls_1.memoryStateTime::PRE_PDN            0                       # Time in different power states
system.mem_ctrls_1.memoryStateTime::ACT    4589737250                       # Time in different power states
system.mem_ctrls_1.memoryStateTime::ACT_PDN            0                       # Time in different power states
system.cpu_voltage_domain.voltage                   1                       # Voltage in Volts
system.cpu_clk_domain.clock                       500                       # Clock period in ticks
system.cpu.apic_clk_domain.clock                 8000                       # Clock period in ticks
system.cpu.workload.num_syscalls                   35                       # Number of system calls
system.cpu.numCycles                       1909619175                       # number of cpu cycles simulated
system.cpu.numWorkItemsStarted                      0                       # number of work items this cpu started
system.cpu.numWorkItemsCompleted                    0                       # number of work items this cpu completed
system.cpu.committedInsts                   500000000                       # Number of instructions committed
system.cpu.committedOps                     644895733                       # Number of ops (including micro ops) committed
system.cpu.num_int_alu_accesses             625873233                       # Number of integer alu accesses
system.cpu.num_fp_alu_accesses               27676254                       # Number of float alu accesses
system.cpu.num_func_calls                     1531165                       # number of times a function call or return occured
system.cpu.num_conditional_control_insts     25302281                       # number of instructions that are conditional controls
system.cpu.num_int_insts                    625873233                       # number of integer instructions
system.cpu.num_fp_insts                      27676254                       # number of float instructions
system.cpu.num_int_register_reads          1467548657                       # number of times the integer registers were read
system.cpu.num_int_register_writes          569494356                       # number of times the integer registers were written
system.cpu.num_fp_register_reads             21879879                       # number of times the floating registers were read
system.cpu.num_fp_register_writes            23672685                       # number of times the floating registers were written
system.cpu.num_cc_register_reads            187332012                       # number of times the CC registers were read
system.cpu.num_cc_register_writes           260734382                       # number of times the CC registers were written
system.cpu.num_mem_refs                     254894307                       # number of memory refs
system.cpu.num_load_insts                   219204129                       # Number of load instructions
system.cpu.num_store_insts                   35690178                       # Number of store instructions
system.cpu.num_idle_cycles                          0                       # Number of idle cycles
system.cpu.num_busy_cycles                 1909619175                       # Number of busy cycles
system.cpu.not_idle_fraction                        1                       # Percentage of non-idle cycles
system.cpu.idle_fraction                            0                       # Percentage of idle cycles
system.cpu.Branches                          27605108                       # Number of branches fetched
system.cpu.op_class::No_OpClass               1502715      0.23%      0.23% # Class of executed instruction
system.cpu.op_class::IntAlu                 363720567     56.40%     56.63% # Class of executed instruction
system.cpu.op_class::IntMult                   618823      0.10%     56.73% # Class of executed instruction
system.cpu.op_class::IntDiv                   6323450      0.98%     57.71% # Class of executed instruction
system.cpu.op_class::FloatAdd                17835871      2.77%     60.48% # Class of executed instruction
system.cpu.op_class::FloatCmp                       0      0.00%     60.48% # Class of executed instruction
system.cpu.op_class::FloatCvt                       0      0.00%     60.48% # Class of executed instruction
system.cpu.op_class::FloatMult                      0      0.00%     60.48% # Class of executed instruction
system.cpu.op_class::FloatDiv                       0      0.00%     60.48% # Class of executed instruction
system.cpu.op_class::FloatSqrt                      0      0.00%     60.48% # Class of executed instruction
system.cpu.op_class::SimdAdd                        0      0.00%     60.48% # Class of executed instruction
system.cpu.op_class::SimdAddAcc                     0      0.00%     60.48% # Class of executed instruction
system.cpu.op_class::SimdAlu                        0      0.00%     60.48% # Class of executed instruction
system.cpu.op_class::SimdCmp                        0      0.00%     60.48% # Class of executed instruction
system.cpu.op_class::SimdCvt                        0      0.00%     60.48% # Class of executed instruction
system.cpu.op_class::SimdMisc                       0      0.00%     60.48% # Class of executed instruction
system.cpu.op_class::SimdMult                       0      0.00%     60.48% # Class of executed instruction
system.cpu.op_class::SimdMultAcc                    0      0.00%     60.48% # Class of executed instruction
system.cpu.op_class::SimdShift                      0      0.00%     60.48% # Class of executed instruction
system.cpu.op_class::SimdShiftAcc                   0      0.00%     60.48% # Class of executed instruction
system.cpu.op_class::SimdSqrt                       0      0.00%     60.48% # Class of executed instruction
system.cpu.op_class::SimdFloatAdd                   0      0.00%     60.48% # Class of executed instruction
system.cpu.op_class::SimdFloatAlu                   0      0.00%     60.48% # Class of executed instruction
system.cpu.op_class::SimdFloatCmp                   0      0.00%     60.48% # Class of executed instruction
system.cpu.op_class::SimdFloatCvt                   0      0.00%     60.48% # Class of executed instruction
system.cpu.op_class::SimdFloatDiv                   0      0.00%     60.48% # Class of executed instruction
system.cpu.op_class::SimdFloatMisc                  0      0.00%     60.48% # Class of executed instruction
system.cpu.op_class::SimdFloatMult                  0      0.00%     60.48% # Class of executed instruction
system.cpu.op_class::SimdFloatMultAcc               0      0.00%     60.48% # Class of executed instruction
system.cpu.op_class::SimdFloatSqrt                  0      0.00%     60.48% # Class of executed instruction
system.cpu.op_class::MemRead                219204129     33.99%     94.47% # Class of executed instruction
system.cpu.op_class::MemWrite                35690178      5.53%    100.00% # Class of executed instruction
system.cpu.op_class::IprAccess                      0      0.00%    100.00% # Class of executed instruction
system.cpu.op_class::InstPrefetch                   0      0.00%    100.00% # Class of executed instruction
system.cpu.op_class::total                  644895733                       # Class of executed instruction
system.cpu.dcache.tags.replacements            259580                       # number of replacements
system.cpu.dcache.tags.tagsinuse          4087.322041                       # Cycle average of tags in use
system.cpu.dcache.tags.total_refs           254632240                       # Total number of references to valid blocks.
system.cpu.dcache.tags.sampled_refs            263676                       # Sample count of references to valid blocks.
system.cpu.dcache.tags.avg_refs            965.701239                       # Average number of references to valid blocks.
system.cpu.dcache.tags.warmup_cycle        8600243500                       # Cycle when the warmup percentage was hit.
system.cpu.dcache.tags.occ_blocks::cpu.data  4087.322041                       # Average occupied blocks per requestor
system.cpu.dcache.tags.occ_percent::cpu.data     0.997881                       # Average percentage of cache occupancy
system.cpu.dcache.tags.occ_percent::total     0.997881                       # Average percentage of cache occupancy
system.cpu.dcache.tags.occ_task_id_blocks::1024         4096                       # Occupied blocks per task id
system.cpu.dcache.tags.age_task_id_blocks_1024::0            2                       # Occupied blocks per task id
system.cpu.dcache.tags.age_task_id_blocks_1024::1            5                       # Occupied blocks per task id
system.cpu.dcache.tags.age_task_id_blocks_1024::2          130                       # Occupied blocks per task id
system.cpu.dcache.tags.age_task_id_blocks_1024::3         1113                       # Occupied blocks per task id
system.cpu.dcache.tags.age_task_id_blocks_1024::4         2846                       # Occupied blocks per task id
system.cpu.dcache.tags.occ_task_id_percent::1024            1                       # Percentage of cache occupancy per task id
system.cpu.dcache.tags.tag_accesses        1019847340                       # Number of tag accesses
system.cpu.dcache.tags.data_accesses       1019847340                       # Number of data accesses
system.cpu.dcache.ReadReq_hits::cpu.data    219132209                       # number of ReadReq hits
system.cpu.dcache.ReadReq_hits::total       219132209                       # number of ReadReq hits
system.cpu.dcache.WriteReq_hits::cpu.data     35498036                       # number of WriteReq hits
system.cpu.dcache.WriteReq_hits::total       35498036                       # number of WriteReq hits
system.cpu.dcache.SoftPFReq_hits::cpu.data         1995                       # number of SoftPFReq hits
system.cpu.dcache.SoftPFReq_hits::total          1995                       # number of SoftPFReq hits
system.cpu.dcache.demand_hits::cpu.data     254630245                       # number of demand (read+write) hits
system.cpu.dcache.demand_hits::total        254630245                       # number of demand (read+write) hits
system.cpu.dcache.overall_hits::cpu.data    254632240                       # number of overall hits
system.cpu.dcache.overall_hits::total       254632240                       # number of overall hits
system.cpu.dcache.ReadReq_misses::cpu.data        67316                       # number of ReadReq misses
system.cpu.dcache.ReadReq_misses::total         67316                       # number of ReadReq misses
system.cpu.dcache.WriteReq_misses::cpu.data       192237                       # number of WriteReq misses
system.cpu.dcache.WriteReq_misses::total       192237                       # number of WriteReq misses
system.cpu.dcache.SoftPFReq_misses::cpu.data         4123                       # number of SoftPFReq misses
system.cpu.dcache.SoftPFReq_misses::total         4123                       # number of SoftPFReq misses
system.cpu.dcache.demand_misses::cpu.data       259553                       # number of demand (read+write) misses
system.cpu.dcache.demand_misses::total         259553                       # number of demand (read+write) misses
system.cpu.dcache.overall_misses::cpu.data       263676                       # number of overall misses
system.cpu.dcache.overall_misses::total        263676                       # number of overall misses
system.cpu.dcache.ReadReq_miss_latency::cpu.data    953795000                       # number of ReadReq miss cycles
system.cpu.dcache.ReadReq_miss_latency::total    953795000                       # number of ReadReq miss cycles
system.cpu.dcache.WriteReq_miss_latency::cpu.data   3070094500                       # number of WriteReq miss cycles
system.cpu.dcache.WriteReq_miss_latency::total   3070094500                       # number of WriteReq miss cycles
system.cpu.dcache.demand_miss_latency::cpu.data   4023889500                       # number of demand (read+write) miss cycles
system.cpu.dcache.demand_miss_latency::total   4023889500                       # number of demand (read+write) miss cycles
system.cpu.dcache.overall_miss_latency::cpu.data   4023889500                       # number of overall miss cycles
system.cpu.dcache.overall_miss_latency::total   4023889500                       # number of overall miss cycles
system.cpu.dcache.ReadReq_accesses::cpu.data    219199525                       # number of ReadReq accesses(hits+misses)
system.cpu.dcache.ReadReq_accesses::total    219199525                       # number of ReadReq accesses(hits+misses)
system.cpu.dcache.WriteReq_accesses::cpu.data     35690273                       # number of WriteReq accesses(hits+misses)
system.cpu.dcache.WriteReq_accesses::total     35690273                       # number of WriteReq accesses(hits+misses)
system.cpu.dcache.SoftPFReq_accesses::cpu.data         6118                       # number of SoftPFReq accesses(hits+misses)
system.cpu.dcache.SoftPFReq_accesses::total         6118                       # number of SoftPFReq accesses(hits+misses)
system.cpu.dcache.demand_accesses::cpu.data    254889798                       # number of demand (read+write) accesses
system.cpu.dcache.demand_accesses::total    254889798                       # number of demand (read+write) accesses
system.cpu.dcache.overall_accesses::cpu.data    254895916                       # number of overall (read+write) accesses
system.cpu.dcache.overall_accesses::total    254895916                       # number of overall (read+write) accesses
system.cpu.dcache.ReadReq_miss_rate::cpu.data     0.000307                       # miss rate for ReadReq accesses
system.cpu.dcache.ReadReq_miss_rate::total     0.000307                       # miss rate for ReadReq accesses
system.cpu.dcache.WriteReq_miss_rate::cpu.data     0.005386                       # miss rate for WriteReq accesses
system.cpu.dcache.WriteReq_miss_rate::total     0.005386                       # miss rate for WriteReq accesses
system.cpu.dcache.SoftPFReq_miss_rate::cpu.data     0.673913                       # miss rate for SoftPFReq accesses
system.cpu.dcache.SoftPFReq_miss_rate::total     0.673913                       # miss rate for SoftPFReq accesses
system.cpu.dcache.demand_miss_rate::cpu.data     0.001018                       # miss rate for demand accesses
system.cpu.dcache.demand_miss_rate::total     0.001018                       # miss rate for demand accesses
system.cpu.dcache.overall_miss_rate::cpu.data     0.001034                       # miss rate for overall accesses
system.cpu.dcache.overall_miss_rate::total     0.001034                       # miss rate for overall accesses
system.cpu.dcache.ReadReq_avg_miss_latency::cpu.data 14168.919722                       # average ReadReq miss latency
system.cpu.dcache.ReadReq_avg_miss_latency::total 14168.919722                       # average ReadReq miss latency
system.cpu.dcache.WriteReq_avg_miss_latency::cpu.data 15970.362105                       # average WriteReq miss latency
system.cpu.dcache.WriteReq_avg_miss_latency::total 15970.362105                       # average WriteReq miss latency
system.cpu.dcache.demand_avg_miss_latency::cpu.data 15503.151572                       # average overall miss latency
system.cpu.dcache.demand_avg_miss_latency::total 15503.151572                       # average overall miss latency
system.cpu.dcache.overall_avg_miss_latency::cpu.data 15260.734765                       # average overall miss latency
system.cpu.dcache.overall_avg_miss_latency::total 15260.734765                       # average overall miss latency
system.cpu.dcache.blocked_cycles::no_mshrs           14                       # number of cycles access was blocked
system.cpu.dcache.blocked_cycles::no_targets            0                       # number of cycles access was blocked
system.cpu.dcache.blocked::no_mshrs                 1                       # number of cycles access was blocked
system.cpu.dcache.blocked::no_targets               0                       # number of cycles access was blocked
system.cpu.dcache.avg_blocked_cycles::no_mshrs           14                       # average number of cycles each access was blocked
system.cpu.dcache.avg_blocked_cycles::no_targets          nan                       # average number of cycles each access was blocked
system.cpu.dcache.fast_writes                       0                       # number of fast writes performed
system.cpu.dcache.cache_copies                      0                       # number of cache copies performed
system.cpu.dcache.writebacks::writebacks       255235                       # number of writebacks
system.cpu.dcache.writebacks::total            255235                       # number of writebacks
system.cpu.dcache.ReadReq_mshr_misses::cpu.data        67316                       # number of ReadReq MSHR misses
system.cpu.dcache.ReadReq_mshr_misses::total        67316                       # number of ReadReq MSHR misses
system.cpu.dcache.WriteReq_mshr_misses::cpu.data       192237                       # number of WriteReq MSHR misses
system.cpu.dcache.WriteReq_mshr_misses::total       192237                       # number of WriteReq MSHR misses
system.cpu.dcache.SoftPFReq_mshr_misses::cpu.data         4123                       # number of SoftPFReq MSHR misses
system.cpu.dcache.SoftPFReq_mshr_misses::total         4123                       # number of SoftPFReq MSHR misses
system.cpu.dcache.demand_mshr_misses::cpu.data       259553                       # number of demand (read+write) MSHR misses
system.cpu.dcache.demand_mshr_misses::total       259553                       # number of demand (read+write) MSHR misses
system.cpu.dcache.overall_mshr_misses::cpu.data       263676                       # number of overall MSHR misses
system.cpu.dcache.overall_mshr_misses::total       263676                       # number of overall MSHR misses
system.cpu.dcache.ReadReq_mshr_miss_latency::cpu.data    886479000                       # number of ReadReq MSHR miss cycles
system.cpu.dcache.ReadReq_mshr_miss_latency::total    886479000                       # number of ReadReq MSHR miss cycles
system.cpu.dcache.WriteReq_mshr_miss_latency::cpu.data   2877857500                       # number of WriteReq MSHR miss cycles
system.cpu.dcache.WriteReq_mshr_miss_latency::total   2877857500                       # number of WriteReq MSHR miss cycles
system.cpu.dcache.SoftPFReq_mshr_miss_latency::cpu.data    131618500                       # number of SoftPFReq MSHR miss cycles
system.cpu.dcache.SoftPFReq_mshr_miss_latency::total    131618500                       # number of SoftPFReq MSHR miss cycles
system.cpu.dcache.demand_mshr_miss_latency::cpu.data   3764336500                       # number of demand (read+write) MSHR miss cycles
system.cpu.dcache.demand_mshr_miss_latency::total   3764336500                       # number of demand (read+write) MSHR miss cycles
system.cpu.dcache.overall_mshr_miss_latency::cpu.data   3895955000                       # number of overall MSHR miss cycles
system.cpu.dcache.overall_mshr_miss_latency::total   3895955000                       # number of overall MSHR miss cycles
system.cpu.dcache.ReadReq_mshr_miss_rate::cpu.data     0.000307                       # mshr miss rate for ReadReq accesses
system.cpu.dcache.ReadReq_mshr_miss_rate::total     0.000307                       # mshr miss rate for ReadReq accesses
system.cpu.dcache.WriteReq_mshr_miss_rate::cpu.data     0.005386                       # mshr miss rate for WriteReq accesses
system.cpu.dcache.WriteReq_mshr_miss_rate::total     0.005386                       # mshr miss rate for WriteReq accesses
system.cpu.dcache.SoftPFReq_mshr_miss_rate::cpu.data     0.673913                       # mshr miss rate for SoftPFReq accesses
system.cpu.dcache.SoftPFReq_mshr_miss_rate::total     0.673913                       # mshr miss rate for SoftPFReq accesses
system.cpu.dcache.demand_mshr_miss_rate::cpu.data     0.001018                       # mshr miss rate for demand accesses
system.cpu.dcache.demand_mshr_miss_rate::total     0.001018                       # mshr miss rate for demand accesses
system.cpu.dcache.overall_mshr_miss_rate::cpu.data     0.001034                       # mshr miss rate for overall accesses
system.cpu.dcache.overall_mshr_miss_rate::total     0.001034                       # mshr miss rate for overall accesses
system.cpu.dcache.ReadReq_avg_mshr_miss_latency::cpu.data 13168.919722                       # average ReadReq mshr miss latency
system.cpu.dcache.ReadReq_avg_mshr_miss_latency::total 13168.919722                       # average ReadReq mshr miss latency
system.cpu.dcache.WriteReq_avg_mshr_miss_latency::cpu.data 14970.362105                       # average WriteReq mshr miss latency
system.cpu.dcache.WriteReq_avg_mshr_miss_latency::total 14970.362105                       # average WriteReq mshr miss latency
system.cpu.dcache.SoftPFReq_avg_mshr_miss_latency::cpu.data 31922.992966                       # average SoftPFReq mshr miss latency
system.cpu.dcache.SoftPFReq_avg_mshr_miss_latency::total 31922.992966                       # average SoftPFReq mshr miss latency
system.cpu.dcache.demand_avg_mshr_miss_latency::cpu.data 14503.151572                       # average overall mshr miss latency
system.cpu.dcache.demand_avg_mshr_miss_latency::total 14503.151572                       # average overall mshr miss latency
system.cpu.dcache.overall_avg_mshr_miss_latency::cpu.data 14775.538919                       # average overall mshr miss latency
system.cpu.dcache.overall_avg_mshr_miss_latency::total 14775.538919                       # average overall mshr miss latency
system.cpu.dcache.no_allocate_misses                0                       # Number of misses that were no-allocate
system.cpu.dtb_walker_cache.tags.replacements            0                       # number of replacements
system.cpu.dtb_walker_cache.tags.tagsinuse            0                       # Cycle average of tags in use
system.cpu.dtb_walker_cache.tags.total_refs            0                       # Total number of references to valid blocks.
system.cpu.dtb_walker_cache.tags.sampled_refs            0                       # Sample count of references to valid blocks.
system.cpu.dtb_walker_cache.tags.avg_refs          nan                       # Average number of references to valid blocks.
system.cpu.dtb_walker_cache.tags.warmup_cycle            0                       # Cycle when the warmup percentage was hit.
system.cpu.dtb_walker_cache.tags.tag_accesses            0                       # Number of tag accesses
system.cpu.dtb_walker_cache.tags.data_accesses            0                       # Number of data accesses
system.cpu.dtb_walker_cache.blocked_cycles::no_mshrs            0                       # number of cycles access was blocked
system.cpu.dtb_walker_cache.blocked_cycles::no_targets            0                       # number of cycles access was blocked
system.cpu.dtb_walker_cache.blocked::no_mshrs            0                       # number of cycles access was blocked
system.cpu.dtb_walker_cache.blocked::no_targets            0                       # number of cycles access was blocked
system.cpu.dtb_walker_cache.avg_blocked_cycles::no_mshrs          nan                       # average number of cycles each access was blocked
system.cpu.dtb_walker_cache.avg_blocked_cycles::no_targets          nan                       # average number of cycles each access was blocked
system.cpu.dtb_walker_cache.fast_writes             0                       # number of fast writes performed
system.cpu.dtb_walker_cache.cache_copies            0                       # number of cache copies performed
system.cpu.dtb_walker_cache.no_allocate_misses            0                       # Number of misses that were no-allocate
system.cpu.icache.tags.replacements               411                       # number of replacements
system.cpu.icache.tags.tagsinuse          1888.879826                       # Cycle average of tags in use
system.cpu.icache.tags.total_refs           695975763                       # Total number of references to valid blocks.
system.cpu.icache.tags.sampled_refs              2302                       # Sample count of references to valid blocks.
system.cpu.icache.tags.avg_refs          302335.257602                       # Average number of references to valid blocks.
system.cpu.icache.tags.warmup_cycle                 0                       # Cycle when the warmup percentage was hit.
system.cpu.icache.tags.occ_blocks::cpu.inst  1888.879826                       # Average occupied blocks per requestor
system.cpu.icache.tags.occ_percent::cpu.inst     0.922305                       # Average percentage of cache occupancy
system.cpu.icache.tags.occ_percent::total     0.922305                       # Average percentage of cache occupancy
system.cpu.icache.tags.occ_task_id_blocks::1024         1891                       # Occupied blocks per task id
system.cpu.icache.tags.age_task_id_blocks_1024::4         1891                       # Occupied blocks per task id
system.cpu.icache.tags.occ_task_id_percent::1024     0.923340                       # Percentage of cache occupancy per task id
system.cpu.icache.tags.tag_accesses        5567826822                       # Number of tag accesses
system.cpu.icache.tags.data_accesses       5567826822                       # Number of data accesses
system.cpu.icache.ReadReq_hits::cpu.inst    695975763                       # number of ReadReq hits
system.cpu.icache.ReadReq_hits::total       695975763                       # number of ReadReq hits
system.cpu.icache.demand_hits::cpu.inst     695975763                       # number of demand (read+write) hits
system.cpu.icache.demand_hits::total        695975763                       # number of demand (read+write) hits
system.cpu.icache.overall_hits::cpu.inst    695975763                       # number of overall hits
system.cpu.icache.overall_hits::total       695975763                       # number of overall hits
system.cpu.icache.ReadReq_misses::cpu.inst         2302                       # number of ReadReq misses
system.cpu.icache.ReadReq_misses::total          2302                       # number of ReadReq misses
system.cpu.icache.demand_misses::cpu.inst         2302                       # number of demand (read+write) misses
system.cpu.icache.demand_misses::total           2302                       # number of demand (read+write) misses
system.cpu.icache.overall_misses::cpu.inst         2302                       # number of overall misses
system.cpu.icache.overall_misses::total          2302                       # number of overall misses
system.cpu.icache.ReadReq_miss_latency::cpu.inst    174385000                       # number of ReadReq miss cycles
system.cpu.icache.ReadReq_miss_latency::total    174385000                       # number of ReadReq miss cycles
system.cpu.icache.demand_miss_latency::cpu.inst    174385000                       # number of demand (read+write) miss cycles
system.cpu.icache.demand_miss_latency::total    174385000                       # number of demand (read+write) miss cycles
system.cpu.icache.overall_miss_latency::cpu.inst    174385000                       # number of overall miss cycles
system.cpu.icache.overall_miss_latency::total    174385000                       # number of overall miss cycles
system.cpu.icache.ReadReq_accesses::cpu.inst    695978065                       # number of ReadReq accesses(hits+misses)
system.cpu.icache.ReadReq_accesses::total    695978065                       # number of ReadReq accesses(hits+misses)
system.cpu.icache.demand_accesses::cpu.inst    695978065                       # number of demand (read+write) accesses
system.cpu.icache.demand_accesses::total    695978065                       # number of demand (read+write) accesses
system.cpu.icache.overall_accesses::cpu.inst    695978065                       # number of overall (read+write) accesses
system.cpu.icache.overall_accesses::total    695978065                       # number of overall (read+write) accesses
system.cpu.icache.ReadReq_miss_rate::cpu.inst     0.000003                       # miss rate for ReadReq accesses
system.cpu.icache.ReadReq_miss_rate::total     0.000003                       # miss rate for ReadReq accesses
system.cpu.icache.demand_miss_rate::cpu.inst     0.000003                       # miss rate for demand accesses
system.cpu.icache.demand_miss_rate::total     0.000003                       # miss rate for demand accesses
system.cpu.icache.overall_miss_rate::cpu.inst     0.000003                       # miss rate for overall accesses
system.cpu.icache.overall_miss_rate::total     0.000003                       # miss rate for overall accesses
system.cpu.icache.ReadReq_avg_miss_latency::cpu.inst 75753.692441                       # average ReadReq miss latency
system.cpu.icache.ReadReq_avg_miss_latency::total 75753.692441                       # average ReadReq miss latency
system.cpu.icache.demand_avg_miss_latency::cpu.inst 75753.692441                       # average overall miss latency
system.cpu.icache.demand_avg_miss_latency::total 75753.692441                       # average overall miss latency
system.cpu.icache.overall_avg_miss_latency::cpu.inst 75753.692441                       # average overall miss latency
system.cpu.icache.overall_avg_miss_latency::total 75753.692441                       # average overall miss latency
system.cpu.icache.blocked_cycles::no_mshrs            0                       # number of cycles access was blocked
system.cpu.icache.blocked_cycles::no_targets            0                       # number of cycles access was blocked
system.cpu.icache.blocked::no_mshrs                 0                       # number of cycles access was blocked
system.cpu.icache.blocked::no_targets               0                       # number of cycles access was blocked
system.cpu.icache.avg_blocked_cycles::no_mshrs          nan                       # average number of cycles each access was blocked
system.cpu.icache.avg_blocked_cycles::no_targets          nan                       # average number of cycles each access was blocked
system.cpu.icache.fast_writes                       0                       # number of fast writes performed
system.cpu.icache.cache_copies                      0                       # number of cache copies performed
system.cpu.icache.writebacks::writebacks          411                       # number of writebacks
system.cpu.icache.writebacks::total               411                       # number of writebacks
system.cpu.icache.ReadReq_mshr_misses::cpu.inst         2302                       # number of ReadReq MSHR misses
system.cpu.icache.ReadReq_mshr_misses::total         2302                       # number of ReadReq MSHR misses
system.cpu.icache.demand_mshr_misses::cpu.inst         2302                       # number of demand (read+write) MSHR misses
system.cpu.icache.demand_mshr_misses::total         2302                       # number of demand (read+write) MSHR misses
system.cpu.icache.overall_mshr_misses::cpu.inst         2302                       # number of overall MSHR misses
system.cpu.icache.overall_mshr_misses::total         2302                       # number of overall MSHR misses
system.cpu.icache.ReadReq_mshr_miss_latency::cpu.inst    172083000                       # number of ReadReq MSHR miss cycles
system.cpu.icache.ReadReq_mshr_miss_latency::total    172083000                       # number of ReadReq MSHR miss cycles
system.cpu.icache.demand_mshr_miss_latency::cpu.inst    172083000                       # number of demand (read+write) MSHR miss cycles
system.cpu.icache.demand_mshr_miss_latency::total    172083000                       # number of demand (read+write) MSHR miss cycles
system.cpu.icache.overall_mshr_miss_latency::cpu.inst    172083000                       # number of overall MSHR miss cycles
system.cpu.icache.overall_mshr_miss_latency::total    172083000                       # number of overall MSHR miss cycles
system.cpu.icache.ReadReq_mshr_miss_rate::cpu.inst     0.000003                       # mshr miss rate for ReadReq accesses
system.cpu.icache.ReadReq_mshr_miss_rate::total     0.000003                       # mshr miss rate for ReadReq accesses
system.cpu.icache.demand_mshr_miss_rate::cpu.inst     0.000003                       # mshr miss rate for demand accesses
system.cpu.icache.demand_mshr_miss_rate::total     0.000003                       # mshr miss rate for demand accesses
system.cpu.icache.overall_mshr_miss_rate::cpu.inst     0.000003                       # mshr miss rate for overall accesses
system.cpu.icache.overall_mshr_miss_rate::total     0.000003                       # mshr miss rate for overall accesses
system.cpu.icache.ReadReq_avg_mshr_miss_latency::cpu.inst 74753.692441                       # average ReadReq mshr miss latency
system.cpu.icache.ReadReq_avg_mshr_miss_latency::total 74753.692441                       # average ReadReq mshr miss latency
system.cpu.icache.demand_avg_mshr_miss_latency::cpu.inst 74753.692441                       # average overall mshr miss latency
system.cpu.icache.demand_avg_mshr_miss_latency::total 74753.692441                       # average overall mshr miss latency
system.cpu.icache.overall_avg_mshr_miss_latency::cpu.inst 74753.692441                       # average overall mshr miss latency
system.cpu.icache.overall_avg_mshr_miss_latency::total 74753.692441                       # average overall mshr miss latency
system.cpu.icache.no_allocate_misses                0                       # Number of misses that were no-allocate
system.cpu.itb_walker_cache.tags.replacements            0                       # number of replacements
system.cpu.itb_walker_cache.tags.tagsinuse            0                       # Cycle average of tags in use
system.cpu.itb_walker_cache.tags.total_refs            0                       # Total number of references to valid blocks.
system.cpu.itb_walker_cache.tags.sampled_refs            0                       # Sample count of references to valid blocks.
system.cpu.itb_walker_cache.tags.avg_refs          nan                       # Average number of references to valid blocks.
system.cpu.itb_walker_cache.tags.warmup_cycle            0                       # Cycle when the warmup percentage was hit.
system.cpu.itb_walker_cache.tags.tag_accesses            0                       # Number of tag accesses
system.cpu.itb_walker_cache.tags.data_accesses            0                       # Number of data accesses
system.cpu.itb_walker_cache.blocked_cycles::no_mshrs            0                       # number of cycles access was blocked
system.cpu.itb_walker_cache.blocked_cycles::no_targets            0                       # number of cycles access was blocked
system.cpu.itb_walker_cache.blocked::no_mshrs            0                       # number of cycles access was blocked
system.cpu.itb_walker_cache.blocked::no_targets            0                       # number of cycles access was blocked
system.cpu.itb_walker_cache.avg_blocked_cycles::no_mshrs          nan                       # average number of cycles each access was blocked
system.cpu.itb_walker_cache.avg_blocked_cycles::no_targets          nan                       # average number of cycles each access was blocked
system.cpu.itb_walker_cache.fast_writes             0                       # number of fast writes performed
system.cpu.itb_walker_cache.cache_copies            0                       # number of cache copies performed
system.cpu.itb_walker_cache.no_allocate_misses            0                       # Number of misses that were no-allocate
system.l2.tags.replacements                       631                       # number of replacements
system.l2.tags.tagsinuse                  8792.845389                       # Cycle average of tags in use
system.l2.tags.total_refs                      215297                       # Total number of references to valid blocks.
system.l2.tags.sampled_refs                     10217                       # Sample count of references to valid blocks.
system.l2.tags.avg_refs                     21.072428                       # Average number of references to valid blocks.
system.l2.tags.warmup_cycle                         0                       # Cycle when the warmup percentage was hit.
system.l2.tags.occ_blocks::writebacks     5990.489044                       # Average occupied blocks per requestor
system.l2.tags.occ_blocks::cpu.inst       1819.388970                       # Average occupied blocks per requestor
system.l2.tags.occ_blocks::cpu.data        982.967375                       # Average occupied blocks per requestor
system.l2.tags.occ_percent::writebacks       0.182815                       # Average percentage of cache occupancy
system.l2.tags.occ_percent::cpu.inst         0.055523                       # Average percentage of cache occupancy
system.l2.tags.occ_percent::cpu.data         0.029998                       # Average percentage of cache occupancy
system.l2.tags.occ_percent::total            0.268336                       # Average percentage of cache occupancy
system.l2.tags.occ_task_id_blocks::1024          9586                       # Occupied blocks per task id
system.l2.tags.age_task_id_blocks_1024::0            2                       # Occupied blocks per task id
system.l2.tags.age_task_id_blocks_1024::1            5                       # Occupied blocks per task id
system.l2.tags.age_task_id_blocks_1024::2           65                       # Occupied blocks per task id
system.l2.tags.age_task_id_blocks_1024::3          364                       # Occupied blocks per task id
system.l2.tags.age_task_id_blocks_1024::4         9150                       # Occupied blocks per task id
system.l2.tags.occ_task_id_percent::1024     0.292542                       # Percentage of cache occupancy per task id
system.l2.tags.tag_accesses                    728423                       # Number of tag accesses
system.l2.tags.data_accesses                   728423                       # Number of data accesses
system.l2.WritebackDirty_hits::writebacks       255235                       # number of WritebackDirty hits
system.l2.WritebackDirty_hits::total           255235                       # number of WritebackDirty hits
system.l2.WritebackClean_hits::writebacks          411                       # number of WritebackClean hits
system.l2.WritebackClean_hits::total              411                       # number of WritebackClean hits
system.l2.ReadExReq_hits::cpu.data             183524                       # number of ReadExReq hits
system.l2.ReadExReq_hits::total                183524                       # number of ReadExReq hits
system.l2.ReadCleanReq_hits::cpu.inst              30                       # number of ReadCleanReq hits
system.l2.ReadCleanReq_hits::total                 30                       # number of ReadCleanReq hits
system.l2.ReadSharedReq_hits::cpu.data          68983                       # number of ReadSharedReq hits
system.l2.ReadSharedReq_hits::total             68983                       # number of ReadSharedReq hits
system.l2.demand_hits::cpu.inst                    30                       # number of demand (read+write) hits
system.l2.demand_hits::cpu.data                252507                       # number of demand (read+write) hits
system.l2.demand_hits::total                   252537                       # number of demand (read+write) hits
system.l2.overall_hits::cpu.inst                   30                       # number of overall hits
system.l2.overall_hits::cpu.data               252507                       # number of overall hits
system.l2.overall_hits::total                  252537                       # number of overall hits
system.l2.ReadExReq_misses::cpu.data             8713                       # number of ReadExReq misses
system.l2.ReadExReq_misses::total                8713                       # number of ReadExReq misses
system.l2.ReadCleanReq_misses::cpu.inst          2272                       # number of ReadCleanReq misses
system.l2.ReadCleanReq_misses::total             2272                       # number of ReadCleanReq misses
system.l2.ReadSharedReq_misses::cpu.data         2456                       # number of ReadSharedReq misses
system.l2.ReadSharedReq_misses::total            2456                       # number of ReadSharedReq misses
system.l2.demand_misses::cpu.inst                2272                       # number of demand (read+write) misses
system.l2.demand_misses::cpu.data               11169                       # number of demand (read+write) misses
system.l2.demand_misses::total                  13441                       # number of demand (read+write) misses
system.l2.overall_misses::cpu.inst               2272                       # number of overall misses
system.l2.overall_misses::cpu.data              11169                       # number of overall misses
system.l2.overall_misses::total                 13441                       # number of overall misses
system.l2.ReadExReq_miss_latency::cpu.data    662500000                       # number of ReadExReq miss cycles
system.l2.ReadExReq_miss_latency::total     662500000                       # number of ReadExReq miss cycles
system.l2.ReadCleanReq_miss_latency::cpu.inst    168315000                       # number of ReadCleanReq miss cycles
system.l2.ReadCleanReq_miss_latency::total    168315000                       # number of ReadCleanReq miss cycles
system.l2.ReadSharedReq_miss_latency::cpu.data    186616500                       # number of ReadSharedReq miss cycles
system.l2.ReadSharedReq_miss_latency::total    186616500                       # number of ReadSharedReq miss cycles
system.l2.demand_miss_latency::cpu.inst     168315000                       # number of demand (read+write) miss cycles
system.l2.demand_miss_latency::cpu.data     849116500                       # number of demand (read+write) miss cycles
system.l2.demand_miss_latency::total       1017431500                       # number of demand (read+write) miss cycles
system.l2.overall_miss_latency::cpu.inst    168315000                       # number of overall miss cycles
system.l2.overall_miss_latency::cpu.data    849116500                       # number of overall miss cycles
system.l2.overall_miss_latency::total      1017431500                       # number of overall miss cycles
system.l2.WritebackDirty_accesses::writebacks       255235                       # number of WritebackDirty accesses(hits+misses)
system.l2.WritebackDirty_accesses::total       255235                       # number of WritebackDirty accesses(hits+misses)
system.l2.WritebackClean_accesses::writebacks          411                       # number of WritebackClean accesses(hits+misses)
system.l2.WritebackClean_accesses::total          411                       # number of WritebackClean accesses(hits+misses)
system.l2.ReadExReq_accesses::cpu.data         192237                       # number of ReadExReq accesses(hits+misses)
system.l2.ReadExReq_accesses::total            192237                       # number of ReadExReq accesses(hits+misses)
system.l2.ReadCleanReq_accesses::cpu.inst         2302                       # number of ReadCleanReq accesses(hits+misses)
system.l2.ReadCleanReq_accesses::total           2302                       # number of ReadCleanReq accesses(hits+misses)
system.l2.ReadSharedReq_accesses::cpu.data        71439                       # number of ReadSharedReq accesses(hits+misses)
system.l2.ReadSharedReq_accesses::total         71439                       # number of ReadSharedReq accesses(hits+misses)
system.l2.demand_accesses::cpu.inst              2302                       # number of demand (read+write) accesses
system.l2.demand_accesses::cpu.data            263676                       # number of demand (read+write) accesses
system.l2.demand_accesses::total               265978                       # number of demand (read+write) accesses
system.l2.overall_accesses::cpu.inst             2302                       # number of overall (read+write) accesses
system.l2.overall_accesses::cpu.data           263676                       # number of overall (read+write) accesses
system.l2.overall_accesses::total              265978                       # number of overall (read+write) accesses
system.l2.ReadExReq_miss_rate::cpu.data      0.045324                       # miss rate for ReadExReq accesses
system.l2.ReadExReq_miss_rate::total         0.045324                       # miss rate for ReadExReq accesses
system.l2.ReadCleanReq_miss_rate::cpu.inst     0.986968                       # miss rate for ReadCleanReq accesses
system.l2.ReadCleanReq_miss_rate::total      0.986968                       # miss rate for ReadCleanReq accesses
system.l2.ReadSharedReq_miss_rate::cpu.data     0.034379                       # miss rate for ReadSharedReq accesses
system.l2.ReadSharedReq_miss_rate::total     0.034379                       # miss rate for ReadSharedReq accesses
system.l2.demand_miss_rate::cpu.inst         0.986968                       # miss rate for demand accesses
system.l2.demand_miss_rate::cpu.data         0.042359                       # miss rate for demand accesses
system.l2.demand_miss_rate::total            0.050534                       # miss rate for demand accesses
system.l2.overall_miss_rate::cpu.inst        0.986968                       # miss rate for overall accesses
system.l2.overall_miss_rate::cpu.data        0.042359                       # miss rate for overall accesses
system.l2.overall_miss_rate::total           0.050534                       # miss rate for overall accesses
system.l2.ReadExReq_avg_miss_latency::cpu.data 76035.808562                       # average ReadExReq miss latency
system.l2.ReadExReq_avg_miss_latency::total 76035.808562                       # average ReadExReq miss latency
system.l2.ReadCleanReq_avg_miss_latency::cpu.inst 74082.306338                       # average ReadCleanReq miss latency
system.l2.ReadCleanReq_avg_miss_latency::total 74082.306338                       # average ReadCleanReq miss latency
system.l2.ReadSharedReq_avg_miss_latency::cpu.data 75983.916938                       # average ReadSharedReq miss latency
system.l2.ReadSharedReq_avg_miss_latency::total 75983.916938                       # average ReadSharedReq miss latency
system.l2.demand_avg_miss_latency::cpu.inst 74082.306338                       # average overall miss latency
system.l2.demand_avg_miss_latency::cpu.data 76024.397887                       # average overall miss latency
system.l2.demand_avg_miss_latency::total 75696.116360                       # average overall miss latency
system.l2.overall_avg_miss_latency::cpu.inst 74082.306338                       # average overall miss latency
system.l2.overall_avg_miss_latency::cpu.data 76024.397887                       # average overall miss latency
system.l2.overall_avg_miss_latency::total 75696.116360                       # average overall miss latency
system.l2.blocked_cycles::no_mshrs                  0                       # number of cycles access was blocked
system.l2.blocked_cycles::no_targets                0                       # number of cycles access was blocked
system.l2.blocked::no_mshrs                         0                       # number of cycles access was blocked
system.l2.blocked::no_targets                       0                       # number of cycles access was blocked
system.l2.avg_blocked_cycles::no_mshrs            nan                       # average number of cycles each access was blocked
system.l2.avg_blocked_cycles::no_targets          nan                       # average number of cycles each access was blocked
system.l2.fast_writes                               0                       # number of fast writes performed
system.l2.cache_copies                              0                       # number of cache copies performed
system.l2.writebacks::writebacks                   23                       # number of writebacks
system.l2.writebacks::total                        23                       # number of writebacks
system.l2.CleanEvict_mshr_misses::writebacks           90                       # number of CleanEvict MSHR misses
system.l2.CleanEvict_mshr_misses::total            90                       # number of CleanEvict MSHR misses
system.l2.ReadExReq_mshr_misses::cpu.data         8713                       # number of ReadExReq MSHR misses
system.l2.ReadExReq_mshr_misses::total           8713                       # number of ReadExReq MSHR misses
system.l2.ReadCleanReq_mshr_misses::cpu.inst         2272                       # number of ReadCleanReq MSHR misses
system.l2.ReadCleanReq_mshr_misses::total         2272                       # number of ReadCleanReq MSHR misses
system.l2.ReadSharedReq_mshr_misses::cpu.data         2456                       # number of ReadSharedReq MSHR misses
system.l2.ReadSharedReq_mshr_misses::total         2456                       # number of ReadSharedReq MSHR misses
system.l2.demand_mshr_misses::cpu.inst           2272                       # number of demand (read+write) MSHR misses
system.l2.demand_mshr_misses::cpu.data          11169                       # number of demand (read+write) MSHR misses
system.l2.demand_mshr_misses::total             13441                       # number of demand (read+write) MSHR misses
system.l2.overall_mshr_misses::cpu.inst          2272                       # number of overall MSHR misses
system.l2.overall_mshr_misses::cpu.data         11169                       # number of overall MSHR misses
system.l2.overall_mshr_misses::total            13441                       # number of overall MSHR misses
system.l2.ReadExReq_mshr_miss_latency::cpu.data    575370000                       # number of ReadExReq MSHR miss cycles
system.l2.ReadExReq_mshr_miss_latency::total    575370000                       # number of ReadExReq MSHR miss cycles
system.l2.ReadCleanReq_mshr_miss_latency::cpu.inst    145595000                       # number of ReadCleanReq MSHR miss cycles
system.l2.ReadCleanReq_mshr_miss_latency::total    145595000                       # number of ReadCleanReq MSHR miss cycles
system.l2.ReadSharedReq_mshr_miss_latency::cpu.data    162056500                       # number of ReadSharedReq MSHR miss cycles
system.l2.ReadSharedReq_mshr_miss_latency::total    162056500                       # number of ReadSharedReq MSHR miss cycles
system.l2.demand_mshr_miss_latency::cpu.inst    145595000                       # number of demand (read+write) MSHR miss cycles
system.l2.demand_mshr_miss_latency::cpu.data    737426500                       # number of demand (read+write) MSHR miss cycles
system.l2.demand_mshr_miss_latency::total    883021500                       # number of demand (read+write) MSHR miss cycles
system.l2.overall_mshr_miss_latency::cpu.inst    145595000                       # number of overall MSHR miss cycles
system.l2.overall_mshr_miss_latency::cpu.data    737426500                       # number of overall MSHR miss cycles
system.l2.overall_mshr_miss_latency::total    883021500                       # number of overall MSHR miss cycles
system.l2.CleanEvict_mshr_miss_rate::writebacks          inf                       # mshr miss rate for CleanEvict accesses
system.l2.CleanEvict_mshr_miss_rate::total          inf                       # mshr miss rate for CleanEvict accesses
system.l2.ReadExReq_mshr_miss_rate::cpu.data     0.045324                       # mshr miss rate for ReadExReq accesses
system.l2.ReadExReq_mshr_miss_rate::total     0.045324                       # mshr miss rate for ReadExReq accesses
system.l2.ReadCleanReq_mshr_miss_rate::cpu.inst     0.986968                       # mshr miss rate for ReadCleanReq accesses
system.l2.ReadCleanReq_mshr_miss_rate::total     0.986968                       # mshr miss rate for ReadCleanReq accesses
system.l2.ReadSharedReq_mshr_miss_rate::cpu.data     0.034379                       # mshr miss rate for ReadSharedReq accesses
system.l2.ReadSharedReq_mshr_miss_rate::total     0.034379                       # mshr miss rate for ReadSharedReq accesses
system.l2.demand_mshr_miss_rate::cpu.inst     0.986968                       # mshr miss rate for demand accesses
system.l2.demand_mshr_miss_rate::cpu.data     0.042359                       # mshr miss rate for demand accesses
system.l2.demand_mshr_miss_rate::total       0.050534                       # mshr miss rate for demand accesses
system.l2.overall_mshr_miss_rate::cpu.inst     0.986968                       # mshr miss rate for overall accesses
system.l2.overall_mshr_miss_rate::cpu.data     0.042359                       # mshr miss rate for overall accesses
system.l2.overall_mshr_miss_rate::total      0.050534                       # mshr miss rate for overall accesses
system.l2.ReadExReq_avg_mshr_miss_latency::cpu.data 66035.808562                       # average ReadExReq mshr miss latency
system.l2.ReadExReq_avg_mshr_miss_latency::total 66035.808562                       # average ReadExReq mshr miss latency
system.l2.ReadCleanReq_avg_mshr_miss_latency::cpu.inst 64082.306338                       # average ReadCleanReq mshr miss latency
system.l2.ReadCleanReq_avg_mshr_miss_latency::total 64082.306338                       # average ReadCleanReq mshr miss latency
system.l2.ReadSharedReq_avg_mshr_miss_latency::cpu.data 65983.916938                       # average ReadSharedReq mshr miss latency
system.l2.ReadSharedReq_avg_mshr_miss_latency::total 65983.916938                       # average ReadSharedReq mshr miss latency
system.l2.demand_avg_mshr_miss_latency::cpu.inst 64082.306338                       # average overall mshr miss latency
system.l2.demand_avg_mshr_miss_latency::cpu.data 66024.397887                       # average overall mshr miss latency
system.l2.demand_avg_mshr_miss_latency::total 65696.116360                       # average overall mshr miss latency
system.l2.overall_avg_mshr_miss_latency::cpu.inst 64082.306338                       # average overall mshr miss latency
system.l2.overall_avg_mshr_miss_latency::cpu.data 66024.397887                       # average overall mshr miss latency
system.l2.overall_avg_mshr_miss_latency::total 65696.116360                       # average overall mshr miss latency
system.l2.no_allocate_misses                        0                       # Number of misses that were no-allocate
system.membus.trans_dist::ReadResp               4728                       # Transaction distribution
system.membus.trans_dist::WritebackDirty           23                       # Transaction distribution
system.membus.trans_dist::CleanEvict              212                       # Transaction distribution
system.membus.trans_dist::ReadExReq              8713                       # Transaction distribution
system.membus.trans_dist::ReadExResp             8713                       # Transaction distribution
system.membus.trans_dist::ReadSharedReq          4728                       # Transaction distribution
system.membus.pkt_count_system.l2.mem_side::system.mem_ctrls.port        27117                       # Packet count per connected master and slave (bytes)
system.membus.pkt_count_system.l2.mem_side::total        27117                       # Packet count per connected master and slave (bytes)
system.membus.pkt_count::total                  27117                       # Packet count per connected master and slave (bytes)
system.membus.pkt_size_system.l2.mem_side::system.mem_ctrls.port       430848                       # Cumulative packet size per connected master and slave (bytes)
system.membus.pkt_size_system.l2.mem_side::total       430848                       # Cumulative packet size per connected master and slave (bytes)
system.membus.pkt_size::total                  430848                       # Cumulative packet size per connected master and slave (bytes)
system.membus.snoops                                0                       # Total snoops (count)
system.membus.snoop_fanout::samples             13676                       # Request fanout histogram
system.membus.snoop_fanout::mean                    0                       # Request fanout histogram
system.membus.snoop_fanout::stdev                   0                       # Request fanout histogram
system.membus.snoop_fanout::underflows              0      0.00%      0.00% # Request fanout histogram
system.membus.snoop_fanout::0                   13676    100.00%    100.00% # Request fanout histogram
system.membus.snoop_fanout::1                       0      0.00%    100.00% # Request fanout histogram
system.membus.snoop_fanout::overflows               0      0.00%    100.00% # Request fanout histogram
system.membus.snoop_fanout::min_value               0                       # Request fanout histogram
system.membus.snoop_fanout::max_value               0                       # Request fanout histogram
system.membus.snoop_fanout::total               13676                       # Request fanout histogram
system.membus.reqLayer2.occupancy            13832000                       # Layer occupancy (ticks)
system.membus.reqLayer2.utilization               0.0                       # Layer utilization (%)
system.membus.respLayer1.occupancy           44529500                       # Layer occupancy (ticks)
system.membus.respLayer1.utilization              0.0                       # Layer utilization (%)
system.tol2bus.snoop_filter.tot_requests       525969                       # Total number of requests made to the snoop filter.
system.tol2bus.snoop_filter.hit_single_requests       259991                       # Number of requests hitting in the snoop filter with a single holder of the requested data.
system.tol2bus.snoop_filter.hit_multi_requests            0                       # Number of requests hitting in the snoop filter with multiple (>1) holders of the requested data.
system.tol2bus.snoop_filter.tot_snoops            486                       # Total number of snoops made to the snoop filter.
system.tol2bus.snoop_filter.hit_single_snoops          486                       # Number of snoops hitting in the snoop filter with a single holder of the requested data.
system.tol2bus.snoop_filter.hit_multi_snoops            0                       # Number of snoops hitting in the snoop filter with multiple (>1) holders of the requested data.
system.tol2bus.trans_dist::ReadResp             73741                       # Transaction distribution
system.tol2bus.trans_dist::WritebackDirty       255258                       # Transaction distribution
system.tol2bus.trans_dist::WritebackClean          411                       # Transaction distribution
system.tol2bus.trans_dist::CleanEvict            4953                       # Transaction distribution
system.tol2bus.trans_dist::ReadExReq           192237                       # Transaction distribution
system.tol2bus.trans_dist::ReadExResp          192237                       # Transaction distribution
system.tol2bus.trans_dist::ReadCleanReq          2302                       # Transaction distribution
system.tol2bus.trans_dist::ReadSharedReq        71439                       # Transaction distribution
system.tol2bus.pkt_count_system.cpu.icache.mem_side::system.l2.cpu_side         5015                       # Packet count per connected master and slave (bytes)
system.tol2bus.pkt_count_system.cpu.dcache.mem_side::system.l2.cpu_side       786932                       # Packet count per connected master and slave (bytes)
system.tol2bus.pkt_count::total                791947                       # Packet count per connected master and slave (bytes)
system.tol2bus.pkt_size_system.cpu.icache.mem_side::system.l2.cpu_side        86816                       # Cumulative packet size per connected master and slave (bytes)
system.tol2bus.pkt_size_system.cpu.dcache.mem_side::system.l2.cpu_side     16605152                       # Cumulative packet size per connected master and slave (bytes)
system.tol2bus.pkt_size::total               16691968                       # Cumulative packet size per connected master and slave (bytes)
system.tol2bus.snoops                             631                       # Total snoops (count)
system.tol2bus.snoop_fanout::samples           266609                       # Request fanout histogram
system.tol2bus.snoop_fanout::mean            0.001823                       # Request fanout histogram
system.tol2bus.snoop_fanout::stdev           0.042657                       # Request fanout histogram
system.tol2bus.snoop_fanout::underflows             0      0.00%      0.00% # Request fanout histogram
system.tol2bus.snoop_fanout::0                 266123     99.82%     99.82% # Request fanout histogram
system.tol2bus.snoop_fanout::1                    486      0.18%    100.00% # Request fanout histogram
system.tol2bus.snoop_fanout::2                      0      0.00%    100.00% # Request fanout histogram
system.tol2bus.snoop_fanout::3                      0      0.00%    100.00% # Request fanout histogram
system.tol2bus.snoop_fanout::4                      0      0.00%    100.00% # Request fanout histogram
system.tol2bus.snoop_fanout::overflows              0      0.00%    100.00% # Request fanout histogram
system.tol2bus.snoop_fanout::min_value              0                       # Request fanout histogram
system.tol2bus.snoop_fanout::max_value              1                       # Request fanout histogram
system.tol2bus.snoop_fanout::total             266609                       # Request fanout histogram
system.tol2bus.reqLayer0.occupancy          390807500                       # Layer occupancy (ticks)
system.tol2bus.reqLayer0.utilization              0.0                       # Layer utilization (%)
system.tol2bus.respLayer0.occupancy           2302000                       # Layer occupancy (ticks)
system.tol2bus.respLayer0.utilization             0.0                       # Layer utilization (%)
system.tol2bus.respLayer1.occupancy         263676000                       # Layer occupancy (ticks)
system.tol2bus.respLayer1.utilization             0.0                       # Layer utilization (%)

---------- End Simulation Statistics   ----------
