
---------- Begin Simulation Statistics ----------
sim_seconds                                  0.956323                       # Number of seconds simulated
sim_ticks                                956322714000                       # Number of ticks simulated
final_tick                               956322714000                       # Number of ticks from beginning of simulation (restored from checkpoints and never reset)
sim_freq                                 1000000000000                       # Frequency of simulated ticks
host_inst_rate                                 728784                       # Simulator instruction rate (inst/s)
host_op_rate                                   939979                       # Simulator op (including micro ops) rate (op/s)
host_tick_rate                             1393904915                       # Simulator tick rate (ticks/s)
host_mem_usage                                 833552                       # Number of bytes of host memory used
host_seconds                                   686.07                       # Real time elapsed on the host
sim_insts                                   500000000                       # Number of instructions simulated
sim_ops                                     644895733                       # Number of ops (including micro ops) simulated
system.voltage_domain.voltage                       1                       # Voltage in Volts
system.clk_domain.clock                          1000                       # Clock period in ticks
system.mem_ctrls.bytes_read::cpu.inst           85184                       # Number of bytes read from this memory
system.mem_ctrls.bytes_read::cpu.data          366464                       # Number of bytes read from this memory
system.mem_ctrls.bytes_read::total             451648                       # Number of bytes read from this memory
system.mem_ctrls.bytes_inst_read::cpu.inst        85184                       # Number of instructions bytes read from this memory
system.mem_ctrls.bytes_inst_read::total         85184                       # Number of instructions bytes read from this memory
system.mem_ctrls.bytes_written::writebacks         1536                       # Number of bytes written to this memory
system.mem_ctrls.bytes_written::total            1536                       # Number of bytes written to this memory
system.mem_ctrls.num_reads::cpu.inst             1331                       # Number of read requests responded to by this memory
system.mem_ctrls.num_reads::cpu.data             5726                       # Number of read requests responded to by this memory
system.mem_ctrls.num_reads::total                7057                       # Number of read requests responded to by this memory
system.mem_ctrls.num_writes::writebacks            24                       # Number of write requests responded to by this memory
system.mem_ctrls.num_writes::total                 24                       # Number of write requests responded to by this memory
system.mem_ctrls.bw_read::cpu.inst              89075                       # Total read bandwidth from this memory (bytes/s)
system.mem_ctrls.bw_read::cpu.data             383201                       # Total read bandwidth from this memory (bytes/s)
system.mem_ctrls.bw_read::total                472276                       # Total read bandwidth from this memory (bytes/s)
system.mem_ctrls.bw_inst_read::cpu.inst         89075                       # Instruction read bandwidth from this memory (bytes/s)
system.mem_ctrls.bw_inst_read::total            89075                       # Instruction read bandwidth from this memory (bytes/s)
system.mem_ctrls.bw_write::writebacks            1606                       # Write bandwidth from this memory (bytes/s)
system.mem_ctrls.bw_write::total                 1606                       # Write bandwidth from this memory (bytes/s)
system.mem_ctrls.bw_total::writebacks            1606                       # Total bandwidth to/from this memory (bytes/s)
system.mem_ctrls.bw_total::cpu.inst             89075                       # Total bandwidth to/from this memory (bytes/s)
system.mem_ctrls.bw_total::cpu.data            383201                       # Total bandwidth to/from this memory (bytes/s)
system.mem_ctrls.bw_total::total               473882                       # Total bandwidth to/from this memory (bytes/s)
system.mem_ctrls.readReqs                        7057                       # Number of read requests accepted
system.mem_ctrls.writeReqs                         24                       # Number of write requests accepted
system.mem_ctrls.readBursts                      7057                       # Number of DRAM read bursts, including those serviced by the write queue
system.mem_ctrls.writeBursts                       24                       # Number of DRAM write bursts, including those merged in the write queue
system.mem_ctrls.bytesReadDRAM                 450944                       # Total number of bytes read from DRAM
system.mem_ctrls.bytesReadWrQ                     704                       # Total number of bytes read from write queue
system.mem_ctrls.bytesWritten                       0                       # Total number of bytes written to DRAM
system.mem_ctrls.bytesReadSys                  451648                       # Total read bytes from the system interface side
system.mem_ctrls.bytesWrittenSys                 1536                       # Total written bytes from the system interface side
system.mem_ctrls.servicedByWrQ                     11                       # Number of DRAM read bursts serviced by the write queue
system.mem_ctrls.mergedWrBursts                     0                       # Number of DRAM write bursts merged with an existing one
system.mem_ctrls.neitherReadNorWriteReqs          221                       # Number of requests that are neither read nor write
system.mem_ctrls.perBankRdBursts::0               315                       # Per bank write bursts
system.mem_ctrls.perBankRdBursts::1               346                       # Per bank write bursts
system.mem_ctrls.perBankRdBursts::2               432                       # Per bank write bursts
system.mem_ctrls.perBankRdBursts::3               318                       # Per bank write bursts
system.mem_ctrls.perBankRdBursts::4               479                       # Per bank write bursts
system.mem_ctrls.perBankRdBursts::5               410                       # Per bank write bursts
system.mem_ctrls.perBankRdBursts::6               341                       # Per bank write bursts
system.mem_ctrls.perBankRdBursts::7               414                       # Per bank write bursts
system.mem_ctrls.perBankRdBursts::8               510                       # Per bank write bursts
system.mem_ctrls.perBankRdBursts::9               514                       # Per bank write bursts
system.mem_ctrls.perBankRdBursts::10              555                       # Per bank write bursts
system.mem_ctrls.perBankRdBursts::11              591                       # Per bank write bursts
system.mem_ctrls.perBankRdBursts::12              493                       # Per bank write bursts
system.mem_ctrls.perBankRdBursts::13              448                       # Per bank write bursts
system.mem_ctrls.perBankRdBursts::14              431                       # Per bank write bursts
system.mem_ctrls.perBankRdBursts::15              449                       # Per bank write bursts
system.mem_ctrls.perBankWrBursts::0                 0                       # Per bank write bursts
system.mem_ctrls.perBankWrBursts::1                 0                       # Per bank write bursts
system.mem_ctrls.perBankWrBursts::2                 0                       # Per bank write bursts
system.mem_ctrls.perBankWrBursts::3                 0                       # Per bank write bursts
system.mem_ctrls.perBankWrBursts::4                 0                       # Per bank write bursts
system.mem_ctrls.perBankWrBursts::5                 0                       # Per bank write bursts
system.mem_ctrls.perBankWrBursts::6                 0                       # Per bank write bursts
system.mem_ctrls.perBankWrBursts::7                 0                       # Per bank write bursts
system.mem_ctrls.perBankWrBursts::8                 0                       # Per bank write bursts
system.mem_ctrls.perBankWrBursts::9                 0                       # Per bank write bursts
system.mem_ctrls.perBankWrBursts::10                0                       # Per bank write bursts
system.mem_ctrls.perBankWrBursts::11                0                       # Per bank write bursts
system.mem_ctrls.perBankWrBursts::12                0                       # Per bank write bursts
system.mem_ctrls.perBankWrBursts::13                0                       # Per bank write bursts
system.mem_ctrls.perBankWrBursts::14                0                       # Per bank write bursts
system.mem_ctrls.perBankWrBursts::15                0                       # Per bank write bursts
system.mem_ctrls.numRdRetry                         0                       # Number of times read queue was full causing retry
system.mem_ctrls.numWrRetry                         0                       # Number of times write queue was full causing retry
system.mem_ctrls.totGap                  340576021500                       # Total gap between requests
system.mem_ctrls.readPktSize::0                     0                       # Read request sizes (log2)
system.mem_ctrls.readPktSize::1                     0                       # Read request sizes (log2)
system.mem_ctrls.readPktSize::2                     0                       # Read request sizes (log2)
system.mem_ctrls.readPktSize::3                     0                       # Read request sizes (log2)
system.mem_ctrls.readPktSize::4                     0                       # Read request sizes (log2)
system.mem_ctrls.readPktSize::5                     0                       # Read request sizes (log2)
system.mem_ctrls.readPktSize::6                  7057                       # Read request sizes (log2)
system.mem_ctrls.writePktSize::0                    0                       # Write request sizes (log2)
system.mem_ctrls.writePktSize::1                    0                       # Write request sizes (log2)
system.mem_ctrls.writePktSize::2                    0                       # Write request sizes (log2)
system.mem_ctrls.writePktSize::3                    0                       # Write request sizes (log2)
system.mem_ctrls.writePktSize::4                    0                       # Write request sizes (log2)
system.mem_ctrls.writePktSize::5                    0                       # Write request sizes (log2)
system.mem_ctrls.writePktSize::6                   24                       # Write request sizes (log2)
system.mem_ctrls.rdQLenPdf::0                    6364                       # What read queue length does an incoming req see
system.mem_ctrls.rdQLenPdf::1                     633                       # What read queue length does an incoming req see
system.mem_ctrls.rdQLenPdf::2                      40                       # What read queue length does an incoming req see
system.mem_ctrls.rdQLenPdf::3                       9                       # What read queue length does an incoming req see
system.mem_ctrls.rdQLenPdf::4                       0                       # What read queue length does an incoming req see
system.mem_ctrls.rdQLenPdf::5                       0                       # What read queue length does an incoming req see
system.mem_ctrls.rdQLenPdf::6                       0                       # What read queue length does an incoming req see
system.mem_ctrls.rdQLenPdf::7                       0                       # What read queue length does an incoming req see
system.mem_ctrls.rdQLenPdf::8                       0                       # What read queue length does an incoming req see
system.mem_ctrls.rdQLenPdf::9                       0                       # What read queue length does an incoming req see
system.mem_ctrls.rdQLenPdf::10                      0                       # What read queue length does an incoming req see
system.mem_ctrls.rdQLenPdf::11                      0                       # What read queue length does an incoming req see
system.mem_ctrls.rdQLenPdf::12                      0                       # What read queue length does an incoming req see
system.mem_ctrls.rdQLenPdf::13                      0                       # What read queue length does an incoming req see
system.mem_ctrls.rdQLenPdf::14                      0                       # What read queue length does an incoming req see
system.mem_ctrls.rdQLenPdf::15                      0                       # What read queue length does an incoming req see
system.mem_ctrls.rdQLenPdf::16                      0                       # What read queue length does an incoming req see
system.mem_ctrls.rdQLenPdf::17                      0                       # What read queue length does an incoming req see
system.mem_ctrls.rdQLenPdf::18                      0                       # What read queue length does an incoming req see
system.mem_ctrls.rdQLenPdf::19                      0                       # What read queue length does an incoming req see
system.mem_ctrls.rdQLenPdf::20                      0                       # What read queue length does an incoming req see
system.mem_ctrls.rdQLenPdf::21                      0                       # What read queue length does an incoming req see
system.mem_ctrls.rdQLenPdf::22                      0                       # What read queue length does an incoming req see
system.mem_ctrls.rdQLenPdf::23                      0                       # What read queue length does an incoming req see
system.mem_ctrls.rdQLenPdf::24                      0                       # What read queue length does an incoming req see
system.mem_ctrls.rdQLenPdf::25                      0                       # What read queue length does an incoming req see
system.mem_ctrls.rdQLenPdf::26                      0                       # What read queue length does an incoming req see
system.mem_ctrls.rdQLenPdf::27                      0                       # What read queue length does an incoming req see
system.mem_ctrls.rdQLenPdf::28                      0                       # What read queue length does an incoming req see
system.mem_ctrls.rdQLenPdf::29                      0                       # What read queue length does an incoming req see
system.mem_ctrls.rdQLenPdf::30                      0                       # What read queue length does an incoming req see
system.mem_ctrls.rdQLenPdf::31                      0                       # What read queue length does an incoming req see
system.mem_ctrls.wrQLenPdf::0                       1                       # What write queue length does an incoming req see
system.mem_ctrls.wrQLenPdf::1                       1                       # What write queue length does an incoming req see
system.mem_ctrls.wrQLenPdf::2                       1                       # What write queue length does an incoming req see
system.mem_ctrls.wrQLenPdf::3                       1                       # What write queue length does an incoming req see
system.mem_ctrls.wrQLenPdf::4                       1                       # What write queue length does an incoming req see
system.mem_ctrls.wrQLenPdf::5                       1                       # What write queue length does an incoming req see
system.mem_ctrls.wrQLenPdf::6                       1                       # What write queue length does an incoming req see
system.mem_ctrls.wrQLenPdf::7                       1                       # What write queue length does an incoming req see
system.mem_ctrls.wrQLenPdf::8                       1                       # What write queue length does an incoming req see
system.mem_ctrls.wrQLenPdf::9                       1                       # What write queue length does an incoming req see
system.mem_ctrls.wrQLenPdf::10                      1                       # What write queue length does an incoming req see
system.mem_ctrls.wrQLenPdf::11                      1                       # What write queue length does an incoming req see
system.mem_ctrls.wrQLenPdf::12                      1                       # What write queue length does an incoming req see
system.mem_ctrls.wrQLenPdf::13                      1                       # What write queue length does an incoming req see
system.mem_ctrls.wrQLenPdf::14                      1                       # What write queue length does an incoming req see
system.mem_ctrls.wrQLenPdf::15                      1                       # What write queue length does an incoming req see
system.mem_ctrls.wrQLenPdf::16                      1                       # What write queue length does an incoming req see
system.mem_ctrls.wrQLenPdf::17                      1                       # What write queue length does an incoming req see
system.mem_ctrls.wrQLenPdf::18                      1                       # What write queue length does an incoming req see
system.mem_ctrls.wrQLenPdf::19                      1                       # What write queue length does an incoming req see
system.mem_ctrls.wrQLenPdf::20                      1                       # What write queue length does an incoming req see
system.mem_ctrls.wrQLenPdf::21                      1                       # What write queue length does an incoming req see
system.mem_ctrls.wrQLenPdf::22                      1                       # What write queue length does an incoming req see
system.mem_ctrls.wrQLenPdf::23                      1                       # What write queue length does an incoming req see
system.mem_ctrls.wrQLenPdf::24                      0                       # What write queue length does an incoming req see
system.mem_ctrls.wrQLenPdf::25                      0                       # What write queue length does an incoming req see
system.mem_ctrls.wrQLenPdf::26                      0                       # What write queue length does an incoming req see
system.mem_ctrls.wrQLenPdf::27                      0                       # What write queue length does an incoming req see
system.mem_ctrls.wrQLenPdf::28                      0                       # What write queue length does an incoming req see
system.mem_ctrls.wrQLenPdf::29                      0                       # What write queue length does an incoming req see
system.mem_ctrls.wrQLenPdf::30                      0                       # What write queue length does an incoming req see
system.mem_ctrls.wrQLenPdf::31                      0                       # What write queue length does an incoming req see
system.mem_ctrls.wrQLenPdf::32                      0                       # What write queue length does an incoming req see
system.mem_ctrls.wrQLenPdf::33                      0                       # What write queue length does an incoming req see
system.mem_ctrls.wrQLenPdf::34                      0                       # What write queue length does an incoming req see
system.mem_ctrls.wrQLenPdf::35                      0                       # What write queue length does an incoming req see
system.mem_ctrls.wrQLenPdf::36                      0                       # What write queue length does an incoming req see
system.mem_ctrls.wrQLenPdf::37                      0                       # What write queue length does an incoming req see
system.mem_ctrls.wrQLenPdf::38                      0                       # What write queue length does an incoming req see
system.mem_ctrls.wrQLenPdf::39                      0                       # What write queue length does an incoming req see
system.mem_ctrls.wrQLenPdf::40                      0                       # What write queue length does an incoming req see
system.mem_ctrls.wrQLenPdf::41                      0                       # What write queue length does an incoming req see
system.mem_ctrls.wrQLenPdf::42                      0                       # What write queue length does an incoming req see
system.mem_ctrls.wrQLenPdf::43                      0                       # What write queue length does an incoming req see
system.mem_ctrls.wrQLenPdf::44                      0                       # What write queue length does an incoming req see
system.mem_ctrls.wrQLenPdf::45                      0                       # What write queue length does an incoming req see
system.mem_ctrls.wrQLenPdf::46                      0                       # What write queue length does an incoming req see
system.mem_ctrls.wrQLenPdf::47                      0                       # What write queue length does an incoming req see
system.mem_ctrls.wrQLenPdf::48                      0                       # What write queue length does an incoming req see
system.mem_ctrls.wrQLenPdf::49                      0                       # What write queue length does an incoming req see
system.mem_ctrls.wrQLenPdf::50                      0                       # What write queue length does an incoming req see
system.mem_ctrls.wrQLenPdf::51                      0                       # What write queue length does an incoming req see
system.mem_ctrls.wrQLenPdf::52                      0                       # What write queue length does an incoming req see
system.mem_ctrls.wrQLenPdf::53                      0                       # What write queue length does an incoming req see
system.mem_ctrls.wrQLenPdf::54                      0                       # What write queue length does an incoming req see
system.mem_ctrls.wrQLenPdf::55                      0                       # What write queue length does an incoming req see
system.mem_ctrls.wrQLenPdf::56                      0                       # What write queue length does an incoming req see
system.mem_ctrls.wrQLenPdf::57                      0                       # What write queue length does an incoming req see
system.mem_ctrls.wrQLenPdf::58                      0                       # What write queue length does an incoming req see
system.mem_ctrls.wrQLenPdf::59                      0                       # What write queue length does an incoming req see
system.mem_ctrls.wrQLenPdf::60                      0                       # What write queue length does an incoming req see
system.mem_ctrls.wrQLenPdf::61                      0                       # What write queue length does an incoming req see
system.mem_ctrls.wrQLenPdf::62                      0                       # What write queue length does an incoming req see
system.mem_ctrls.wrQLenPdf::63                      0                       # What write queue length does an incoming req see
system.mem_ctrls.bytesPerActivate::samples         2470                       # Bytes accessed per row activation
system.mem_ctrls.bytesPerActivate::mean    182.568421                       # Bytes accessed per row activation
system.mem_ctrls.bytesPerActivate::gmean   103.068398                       # Bytes accessed per row activation
system.mem_ctrls.bytesPerActivate::stdev   271.578971                       # Bytes accessed per row activation
system.mem_ctrls.bytesPerActivate::0-127         1786     72.31%     72.31% # Bytes accessed per row activation
system.mem_ctrls.bytesPerActivate::128-255          266     10.77%     83.08% # Bytes accessed per row activation
system.mem_ctrls.bytesPerActivate::256-383           84      3.40%     86.48% # Bytes accessed per row activation
system.mem_ctrls.bytesPerActivate::384-511           60      2.43%     88.91% # Bytes accessed per row activation
system.mem_ctrls.bytesPerActivate::512-639           36      1.46%     90.36% # Bytes accessed per row activation
system.mem_ctrls.bytesPerActivate::640-767           15      0.61%     90.97% # Bytes accessed per row activation
system.mem_ctrls.bytesPerActivate::768-895           34      1.38%     92.35% # Bytes accessed per row activation
system.mem_ctrls.bytesPerActivate::896-1023           13      0.53%     92.87% # Bytes accessed per row activation
system.mem_ctrls.bytesPerActivate::1024-1151          176      7.13%    100.00% # Bytes accessed per row activation
system.mem_ctrls.bytesPerActivate::total         2470                       # Bytes accessed per row activation
system.mem_ctrls.totQLat                     75621500                       # Total ticks spent queuing
system.mem_ctrls.totMemAccLat               207734000                       # Total ticks spent from burst creation until serviced by the DRAM
system.mem_ctrls.totBusLat                   35230000                       # Total ticks spent in databus transfers
system.mem_ctrls.avgQLat                     10732.54                       # Average queueing delay per DRAM burst
system.mem_ctrls.avgBusLat                    5000.00                       # Average bus latency per DRAM burst
system.mem_ctrls.avgMemAccLat                29482.54                       # Average memory access latency per DRAM burst
system.mem_ctrls.avgRdBW                         0.47                       # Average DRAM read bandwidth in MiByte/s
system.mem_ctrls.avgWrBW                         0.00                       # Average achieved write bandwidth in MiByte/s
system.mem_ctrls.avgRdBWSys                      0.47                       # Average system read bandwidth in MiByte/s
system.mem_ctrls.avgWrBWSys                      0.00                       # Average system write bandwidth in MiByte/s
system.mem_ctrls.peakBW                      12800.00                       # Theoretical peak bandwidth in MiByte/s
system.mem_ctrls.busUtil                         0.00                       # Data bus utilization in percentage
system.mem_ctrls.busUtilRead                     0.00                       # Data bus utilization in percentage for reads
system.mem_ctrls.busUtilWrite                    0.00                       # Data bus utilization in percentage for writes
system.mem_ctrls.avgRdQLen                       1.00                       # Average read queue length when enqueuing
system.mem_ctrls.avgWrQLen                      22.49                       # Average write queue length when enqueuing
system.mem_ctrls.readRowHits                     4576                       # Number of row buffer hits during reads
system.mem_ctrls.writeRowHits                       0                       # Number of row buffer hits during writes
system.mem_ctrls.readRowHitRate                 64.94                       # Row buffer hit rate for reads
system.mem_ctrls.writeRowHitRate                 0.00                       # Row buffer hit rate for writes
system.mem_ctrls.avgGap                   48097164.45                       # Average gap between requests
system.mem_ctrls.pageHitRate                    64.72                       # Row buffer hit rate, read and write combined
system.mem_ctrls_0.actEnergy                  8724240                       # Energy for activate commands per rank (pJ)
system.mem_ctrls_0.preEnergy                  4760250                       # Energy for precharge commands per rank (pJ)
system.mem_ctrls_0.readEnergy                23829000                       # Energy for read commands per rank (pJ)
system.mem_ctrls_0.writeEnergy                      0                       # Energy for write commands per rank (pJ)
system.mem_ctrls_0.refreshEnergy          62461847760                       # Energy for refresh commands per rank (pJ)
system.mem_ctrls_0.actBackEnergy          22951937205                       # Energy for active background per rank (pJ)
system.mem_ctrls_0.preBackEnergy         553655876250                       # Energy for precharge background per rank (pJ)
system.mem_ctrls_0.totalEnergy           639106974705                       # Total energy per rank (pJ)
system.mem_ctrls_0.averagePower            668.301556                       # Core power per rank (mW)
system.mem_ctrls_0.memoryStateTime::IDLE 921061260250                       # Time in different power states
system.mem_ctrls_0.memoryStateTime::REF   31933460000                       # Time in different power states
system.mem_ctrls_0.memoryStateTime::PRE_PDN            0                       # Time in different power states
system.mem_ctrls_0.memoryStateTime::ACT    3320551000                       # Time in different power states
system.mem_ctrls_0.memoryStateTime::ACT_PDN            0                       # Time in different power states
system.mem_ctrls_1.actEnergy                  9948960                       # Energy for activate commands per rank (pJ)
system.mem_ctrls_1.preEnergy                  5428500                       # Energy for precharge commands per rank (pJ)
system.mem_ctrls_1.readEnergy                31129800                       # Energy for read commands per rank (pJ)
system.mem_ctrls_1.writeEnergy                      0                       # Energy for write commands per rank (pJ)
system.mem_ctrls_1.refreshEnergy          62461847760                       # Energy for refresh commands per rank (pJ)
system.mem_ctrls_1.actBackEnergy          23160229740                       # Energy for active background per rank (pJ)
system.mem_ctrls_1.preBackEnergy         553473163500                       # Energy for precharge background per rank (pJ)
system.mem_ctrls_1.totalEnergy           639141748260                       # Total energy per rank (pJ)
system.mem_ctrls_1.averagePower            668.337918                       # Core power per rank (mW)
system.mem_ctrls_1.memoryStateTime::IDLE 920756305250                       # Time in different power states
system.mem_ctrls_1.memoryStateTime::REF   31933460000                       # Time in different power states
system.mem_ctrls_1.memoryStateTime::PRE_PDN            0                       # Time in different power states
system.mem_ctrls_1.memoryStateTime::ACT    3625506000                       # Time in different power states
system.mem_ctrls_1.memoryStateTime::ACT_PDN            0                       # Time in different power states
system.cpu_voltage_domain.voltage                   1                       # Voltage in Volts
system.cpu_clk_domain.clock                       500                       # Clock period in ticks
system.cpu.apic_clk_domain.clock                 8000                       # Clock period in ticks
system.cpu.workload.num_syscalls                   35                       # Number of system calls
system.cpu.numCycles                       1912645428                       # number of cpu cycles simulated
system.cpu.numWorkItemsStarted                      0                       # number of work items this cpu started
system.cpu.numWorkItemsCompleted                    0                       # number of work items this cpu completed
system.cpu.committedInsts                   500000000                       # Number of instructions committed
system.cpu.committedOps                     644895733                       # Number of ops (including micro ops) committed
system.cpu.num_int_alu_accesses             625873233                       # Number of integer alu accesses
system.cpu.num_fp_alu_accesses               27676254                       # Number of float alu accesses
system.cpu.num_func_calls                     1531165                       # number of times a function call or return occured
system.cpu.num_conditional_control_insts     25302281                       # number of instructions that are conditional controls
system.cpu.num_int_insts                    625873233                       # number of integer instructions
system.cpu.num_fp_insts                      27676254                       # number of float instructions
system.cpu.num_int_register_reads          1467548657                       # number of times the integer registers were read
system.cpu.num_int_register_writes          569494356                       # number of times the integer registers were written
system.cpu.num_fp_register_reads             21879879                       # number of times the floating registers were read
system.cpu.num_fp_register_writes            23672685                       # number of times the floating registers were written
system.cpu.num_cc_register_reads            187332012                       # number of times the CC registers were read
system.cpu.num_cc_register_writes           260734382                       # number of times the CC registers were written
system.cpu.num_mem_refs                     254894307                       # number of memory refs
system.cpu.num_load_insts                   219204129                       # Number of load instructions
system.cpu.num_store_insts                   35690178                       # Number of store instructions
system.cpu.num_idle_cycles                          0                       # Number of idle cycles
system.cpu.num_busy_cycles                 1912645428                       # Number of busy cycles
system.cpu.not_idle_fraction                        1                       # Percentage of non-idle cycles
system.cpu.idle_fraction                            0                       # Percentage of idle cycles
system.cpu.Branches                          27605108                       # Number of branches fetched
system.cpu.op_class::No_OpClass               1502715      0.23%      0.23% # Class of executed instruction
system.cpu.op_class::IntAlu                 363720567     56.40%     56.63% # Class of executed instruction
system.cpu.op_class::IntMult                   618823      0.10%     56.73% # Class of executed instruction
system.cpu.op_class::IntDiv                   6323450      0.98%     57.71% # Class of executed instruction
system.cpu.op_class::FloatAdd                17835871      2.77%     60.48% # Class of executed instruction
system.cpu.op_class::FloatCmp                       0      0.00%     60.48% # Class of executed instruction
system.cpu.op_class::FloatCvt                       0      0.00%     60.48% # Class of executed instruction
system.cpu.op_class::FloatMult                      0      0.00%     60.48% # Class of executed instruction
system.cpu.op_class::FloatDiv                       0      0.00%     60.48% # Class of executed instruction
system.cpu.op_class::FloatSqrt                      0      0.00%     60.48% # Class of executed instruction
system.cpu.op_class::SimdAdd                        0      0.00%     60.48% # Class of executed instruction
system.cpu.op_class::SimdAddAcc                     0      0.00%     60.48% # Class of executed instruction
system.cpu.op_class::SimdAlu                        0      0.00%     60.48% # Class of executed instruction
system.cpu.op_class::SimdCmp                        0      0.00%     60.48% # Class of executed instruction
system.cpu.op_class::SimdCvt                        0      0.00%     60.48% # Class of executed instruction
system.cpu.op_class::SimdMisc                       0      0.00%     60.48% # Class of executed instruction
system.cpu.op_class::SimdMult                       0      0.00%     60.48% # Class of executed instruction
system.cpu.op_class::SimdMultAcc                    0      0.00%     60.48% # Class of executed instruction
system.cpu.op_class::SimdShift                      0      0.00%     60.48% # Class of executed instruction
system.cpu.op_class::SimdShiftAcc                   0      0.00%     60.48% # Class of executed instruction
system.cpu.op_class::SimdSqrt                       0      0.00%     60.48% # Class of executed instruction
system.cpu.op_class::SimdFloatAdd                   0      0.00%     60.48% # Class of executed instruction
system.cpu.op_class::SimdFloatAlu                   0      0.00%     60.48% # Class of executed instruction
system.cpu.op_class::SimdFloatCmp                   0      0.00%     60.48% # Class of executed instruction
system.cpu.op_class::SimdFloatCvt                   0      0.00%     60.48% # Class of executed instruction
system.cpu.op_class::SimdFloatDiv                   0      0.00%     60.48% # Class of executed instruction
system.cpu.op_class::SimdFloatMisc                  0      0.00%     60.48% # Class of executed instruction
system.cpu.op_class::SimdFloatMult                  0      0.00%     60.48% # Class of executed instruction
system.cpu.op_class::SimdFloatMultAcc               0      0.00%     60.48% # Class of executed instruction
system.cpu.op_class::SimdFloatSqrt                  0      0.00%     60.48% # Class of executed instruction
system.cpu.op_class::MemRead                219204129     33.99%     94.47% # Class of executed instruction
system.cpu.op_class::MemWrite                35690178      5.53%    100.00% # Class of executed instruction
system.cpu.op_class::IprAccess                      0      0.00%    100.00% # Class of executed instruction
system.cpu.op_class::InstPrefetch                   0      0.00%    100.00% # Class of executed instruction
system.cpu.op_class::total                  644895733                       # Class of executed instruction
system.cpu.dcache.tags.replacements            410472                       # number of replacements
system.cpu.dcache.tags.tagsinuse          1023.440673                       # Cycle average of tags in use
system.cpu.dcache.tags.total_refs           254483355                       # Total number of references to valid blocks.
system.cpu.dcache.tags.sampled_refs            411496                       # Sample count of references to valid blocks.
system.cpu.dcache.tags.avg_refs            618.434578                       # Average number of references to valid blocks.
system.cpu.dcache.tags.warmup_cycle        2825748500                       # Cycle when the warmup percentage was hit.
system.cpu.dcache.tags.occ_blocks::cpu.data  1023.440673                       # Average occupied blocks per requestor
system.cpu.dcache.tags.occ_percent::cpu.data     0.999454                       # Average percentage of cache occupancy
system.cpu.dcache.tags.occ_percent::total     0.999454                       # Average percentage of cache occupancy
system.cpu.dcache.tags.occ_task_id_blocks::1024         1024                       # Occupied blocks per task id
system.cpu.dcache.tags.age_task_id_blocks_1024::0            5                       # Occupied blocks per task id
system.cpu.dcache.tags.age_task_id_blocks_1024::1           49                       # Occupied blocks per task id
system.cpu.dcache.tags.age_task_id_blocks_1024::2          428                       # Occupied blocks per task id
system.cpu.dcache.tags.age_task_id_blocks_1024::3          495                       # Occupied blocks per task id
system.cpu.dcache.tags.age_task_id_blocks_1024::4           47                       # Occupied blocks per task id
system.cpu.dcache.tags.occ_task_id_percent::1024            1                       # Percentage of cache occupancy per task id
system.cpu.dcache.tags.tag_accesses        2039570304                       # Number of tag accesses
system.cpu.dcache.tags.data_accesses       2039570304                       # Number of data accesses
system.cpu.dcache.ReadReq_hits::cpu.data    219111173                       # number of ReadReq hits
system.cpu.dcache.ReadReq_hits::total       219111173                       # number of ReadReq hits
system.cpu.dcache.WriteReq_hits::cpu.data     35372131                       # number of WriteReq hits
system.cpu.dcache.WriteReq_hits::total       35372131                       # number of WriteReq hits
system.cpu.dcache.SoftPFReq_hits::cpu.data           51                       # number of SoftPFReq hits
system.cpu.dcache.SoftPFReq_hits::total            51                       # number of SoftPFReq hits
system.cpu.dcache.demand_hits::cpu.data     254483304                       # number of demand (read+write) hits
system.cpu.dcache.demand_hits::total        254483304                       # number of demand (read+write) hits
system.cpu.dcache.overall_hits::cpu.data    254483355                       # number of overall hits
system.cpu.dcache.overall_hits::total       254483355                       # number of overall hits
system.cpu.dcache.ReadReq_misses::cpu.data        87337                       # number of ReadReq misses
system.cpu.dcache.ReadReq_misses::total         87337                       # number of ReadReq misses
system.cpu.dcache.WriteReq_misses::cpu.data       318092                       # number of WriteReq misses
system.cpu.dcache.WriteReq_misses::total       318092                       # number of WriteReq misses
system.cpu.dcache.SoftPFReq_misses::cpu.data         6067                       # number of SoftPFReq misses
system.cpu.dcache.SoftPFReq_misses::total         6067                       # number of SoftPFReq misses
system.cpu.dcache.demand_misses::cpu.data       405429                       # number of demand (read+write) misses
system.cpu.dcache.demand_misses::total         405429                       # number of demand (read+write) misses
system.cpu.dcache.overall_misses::cpu.data       411496                       # number of overall misses
system.cpu.dcache.overall_misses::total        411496                       # number of overall misses
system.cpu.dcache.ReadReq_miss_latency::cpu.data   1179960500                       # number of ReadReq miss cycles
system.cpu.dcache.ReadReq_miss_latency::total   1179960500                       # number of ReadReq miss cycles
system.cpu.dcache.WriteReq_miss_latency::cpu.data   4404538000                       # number of WriteReq miss cycles
system.cpu.dcache.WriteReq_miss_latency::total   4404538000                       # number of WriteReq miss cycles
system.cpu.dcache.demand_miss_latency::cpu.data   5584498500                       # number of demand (read+write) miss cycles
system.cpu.dcache.demand_miss_latency::total   5584498500                       # number of demand (read+write) miss cycles
system.cpu.dcache.overall_miss_latency::cpu.data   5584498500                       # number of overall miss cycles
system.cpu.dcache.overall_miss_latency::total   5584498500                       # number of overall miss cycles
system.cpu.dcache.ReadReq_accesses::cpu.data    219198510                       # number of ReadReq accesses(hits+misses)
system.cpu.dcache.ReadReq_accesses::total    219198510                       # number of ReadReq accesses(hits+misses)
system.cpu.dcache.WriteReq_accesses::cpu.data     35690223                       # number of WriteReq accesses(hits+misses)
system.cpu.dcache.WriteReq_accesses::total     35690223                       # number of WriteReq accesses(hits+misses)
system.cpu.dcache.SoftPFReq_accesses::cpu.data         6118                       # number of SoftPFReq accesses(hits+misses)
system.cpu.dcache.SoftPFReq_accesses::total         6118                       # number of SoftPFReq accesses(hits+misses)
system.cpu.dcache.demand_accesses::cpu.data    254888733                       # number of demand (read+write) accesses
system.cpu.dcache.demand_accesses::total    254888733                       # number of demand (read+write) accesses
system.cpu.dcache.overall_accesses::cpu.data    254894851                       # number of overall (read+write) accesses
system.cpu.dcache.overall_accesses::total    254894851                       # number of overall (read+write) accesses
system.cpu.dcache.ReadReq_miss_rate::cpu.data     0.000398                       # miss rate for ReadReq accesses
system.cpu.dcache.ReadReq_miss_rate::total     0.000398                       # miss rate for ReadReq accesses
system.cpu.dcache.WriteReq_miss_rate::cpu.data     0.008913                       # miss rate for WriteReq accesses
system.cpu.dcache.WriteReq_miss_rate::total     0.008913                       # miss rate for WriteReq accesses
system.cpu.dcache.SoftPFReq_miss_rate::cpu.data     0.991664                       # miss rate for SoftPFReq accesses
system.cpu.dcache.SoftPFReq_miss_rate::total     0.991664                       # miss rate for SoftPFReq accesses
system.cpu.dcache.demand_miss_rate::cpu.data     0.001591                       # miss rate for demand accesses
system.cpu.dcache.demand_miss_rate::total     0.001591                       # miss rate for demand accesses
system.cpu.dcache.overall_miss_rate::cpu.data     0.001614                       # miss rate for overall accesses
system.cpu.dcache.overall_miss_rate::total     0.001614                       # miss rate for overall accesses
system.cpu.dcache.ReadReq_avg_miss_latency::cpu.data 13510.430860                       # average ReadReq miss latency
system.cpu.dcache.ReadReq_avg_miss_latency::total 13510.430860                       # average ReadReq miss latency
system.cpu.dcache.WriteReq_avg_miss_latency::cpu.data 13846.742452                       # average WriteReq miss latency
system.cpu.dcache.WriteReq_avg_miss_latency::total 13846.742452                       # average WriteReq miss latency
system.cpu.dcache.demand_avg_miss_latency::cpu.data 13774.294636                       # average overall miss latency
system.cpu.dcache.demand_avg_miss_latency::total 13774.294636                       # average overall miss latency
system.cpu.dcache.overall_avg_miss_latency::cpu.data 13571.209684                       # average overall miss latency
system.cpu.dcache.overall_avg_miss_latency::total 13571.209684                       # average overall miss latency
system.cpu.dcache.blocked_cycles::no_mshrs        15174                       # number of cycles access was blocked
system.cpu.dcache.blocked_cycles::no_targets            0                       # number of cycles access was blocked
system.cpu.dcache.blocked::no_mshrs               592                       # number of cycles access was blocked
system.cpu.dcache.blocked::no_targets               0                       # number of cycles access was blocked
system.cpu.dcache.avg_blocked_cycles::no_mshrs    25.631757                       # average number of cycles each access was blocked
system.cpu.dcache.avg_blocked_cycles::no_targets          nan                       # average number of cycles each access was blocked
system.cpu.dcache.fast_writes                       0                       # number of fast writes performed
system.cpu.dcache.cache_copies                      0                       # number of cache copies performed
system.cpu.dcache.writebacks::writebacks       405265                       # number of writebacks
system.cpu.dcache.writebacks::total            405265                       # number of writebacks
system.cpu.dcache.ReadReq_mshr_misses::cpu.data        87337                       # number of ReadReq MSHR misses
system.cpu.dcache.ReadReq_mshr_misses::total        87337                       # number of ReadReq MSHR misses
system.cpu.dcache.WriteReq_mshr_misses::cpu.data       318092                       # number of WriteReq MSHR misses
system.cpu.dcache.WriteReq_mshr_misses::total       318092                       # number of WriteReq MSHR misses
system.cpu.dcache.SoftPFReq_mshr_misses::cpu.data         6067                       # number of SoftPFReq MSHR misses
system.cpu.dcache.SoftPFReq_mshr_misses::total         6067                       # number of SoftPFReq MSHR misses
system.cpu.dcache.demand_mshr_misses::cpu.data       405429                       # number of demand (read+write) MSHR misses
system.cpu.dcache.demand_mshr_misses::total       405429                       # number of demand (read+write) MSHR misses
system.cpu.dcache.overall_mshr_misses::cpu.data       411496                       # number of overall MSHR misses
system.cpu.dcache.overall_mshr_misses::total       411496                       # number of overall MSHR misses
system.cpu.dcache.ReadReq_mshr_miss_latency::cpu.data   1092623500                       # number of ReadReq MSHR miss cycles
system.cpu.dcache.ReadReq_mshr_miss_latency::total   1092623500                       # number of ReadReq MSHR miss cycles
system.cpu.dcache.WriteReq_mshr_miss_latency::cpu.data   4086446000                       # number of WriteReq MSHR miss cycles
system.cpu.dcache.WriteReq_mshr_miss_latency::total   4086446000                       # number of WriteReq MSHR miss cycles
system.cpu.dcache.SoftPFReq_mshr_miss_latency::cpu.data    157789998                       # number of SoftPFReq MSHR miss cycles
system.cpu.dcache.SoftPFReq_mshr_miss_latency::total    157789998                       # number of SoftPFReq MSHR miss cycles
system.cpu.dcache.demand_mshr_miss_latency::cpu.data   5179069500                       # number of demand (read+write) MSHR miss cycles
system.cpu.dcache.demand_mshr_miss_latency::total   5179069500                       # number of demand (read+write) MSHR miss cycles
system.cpu.dcache.overall_mshr_miss_latency::cpu.data   5336859498                       # number of overall MSHR miss cycles
system.cpu.dcache.overall_mshr_miss_latency::total   5336859498                       # number of overall MSHR miss cycles
system.cpu.dcache.ReadReq_mshr_miss_rate::cpu.data     0.000398                       # mshr miss rate for ReadReq accesses
system.cpu.dcache.ReadReq_mshr_miss_rate::total     0.000398                       # mshr miss rate for ReadReq accesses
system.cpu.dcache.WriteReq_mshr_miss_rate::cpu.data     0.008913                       # mshr miss rate for WriteReq accesses
system.cpu.dcache.WriteReq_mshr_miss_rate::total     0.008913                       # mshr miss rate for WriteReq accesses
system.cpu.dcache.SoftPFReq_mshr_miss_rate::cpu.data     0.991664                       # mshr miss rate for SoftPFReq accesses
system.cpu.dcache.SoftPFReq_mshr_miss_rate::total     0.991664                       # mshr miss rate for SoftPFReq accesses
system.cpu.dcache.demand_mshr_miss_rate::cpu.data     0.001591                       # mshr miss rate for demand accesses
system.cpu.dcache.demand_mshr_miss_rate::total     0.001591                       # mshr miss rate for demand accesses
system.cpu.dcache.overall_mshr_miss_rate::cpu.data     0.001614                       # mshr miss rate for overall accesses
system.cpu.dcache.overall_mshr_miss_rate::total     0.001614                       # mshr miss rate for overall accesses
system.cpu.dcache.ReadReq_avg_mshr_miss_latency::cpu.data 12510.430860                       # average ReadReq mshr miss latency
system.cpu.dcache.ReadReq_avg_mshr_miss_latency::total 12510.430860                       # average ReadReq mshr miss latency
system.cpu.dcache.WriteReq_avg_mshr_miss_latency::cpu.data 12846.742452                       # average WriteReq mshr miss latency
system.cpu.dcache.WriteReq_avg_mshr_miss_latency::total 12846.742452                       # average WriteReq mshr miss latency
system.cpu.dcache.SoftPFReq_avg_mshr_miss_latency::cpu.data 26007.911324                       # average SoftPFReq mshr miss latency
system.cpu.dcache.SoftPFReq_avg_mshr_miss_latency::total 26007.911324                       # average SoftPFReq mshr miss latency
system.cpu.dcache.demand_avg_mshr_miss_latency::cpu.data 12774.294636                       # average overall mshr miss latency
system.cpu.dcache.demand_avg_mshr_miss_latency::total 12774.294636                       # average overall mshr miss latency
system.cpu.dcache.overall_avg_mshr_miss_latency::cpu.data 12969.407960                       # average overall mshr miss latency
system.cpu.dcache.overall_avg_mshr_miss_latency::total 12969.407960                       # average overall mshr miss latency
system.cpu.dcache.no_allocate_misses                0                       # Number of misses that were no-allocate
system.cpu.dtb_walker_cache.tags.replacements            0                       # number of replacements
system.cpu.dtb_walker_cache.tags.tagsinuse            0                       # Cycle average of tags in use
system.cpu.dtb_walker_cache.tags.total_refs            0                       # Total number of references to valid blocks.
system.cpu.dtb_walker_cache.tags.sampled_refs            0                       # Sample count of references to valid blocks.
system.cpu.dtb_walker_cache.tags.avg_refs          nan                       # Average number of references to valid blocks.
system.cpu.dtb_walker_cache.tags.warmup_cycle            0                       # Cycle when the warmup percentage was hit.
system.cpu.dtb_walker_cache.tags.tag_accesses            0                       # Number of tag accesses
system.cpu.dtb_walker_cache.tags.data_accesses            0                       # Number of data accesses
system.cpu.dtb_walker_cache.blocked_cycles::no_mshrs            0                       # number of cycles access was blocked
system.cpu.dtb_walker_cache.blocked_cycles::no_targets            0                       # number of cycles access was blocked
system.cpu.dtb_walker_cache.blocked::no_mshrs            0                       # number of cycles access was blocked
system.cpu.dtb_walker_cache.blocked::no_targets            0                       # number of cycles access was blocked
system.cpu.dtb_walker_cache.avg_blocked_cycles::no_mshrs          nan                       # average number of cycles each access was blocked
system.cpu.dtb_walker_cache.avg_blocked_cycles::no_targets          nan                       # average number of cycles each access was blocked
system.cpu.dtb_walker_cache.fast_writes             0                       # number of fast writes performed
system.cpu.dtb_walker_cache.cache_copies            0                       # number of cache copies performed
system.cpu.dtb_walker_cache.no_allocate_misses            0                       # Number of misses that were no-allocate
system.cpu.icache.tags.replacements             13920                       # number of replacements
system.cpu.icache.tags.tagsinuse           784.857274                       # Cycle average of tags in use
system.cpu.icache.tags.total_refs           695963359                       # Total number of references to valid blocks.
system.cpu.icache.tags.sampled_refs             14706                       # Sample count of references to valid blocks.
system.cpu.icache.tags.avg_refs          47325.129811                       # Average number of references to valid blocks.
system.cpu.icache.tags.warmup_cycle                 0                       # Cycle when the warmup percentage was hit.
system.cpu.icache.tags.occ_blocks::cpu.inst   784.857274                       # Average occupied blocks per requestor
system.cpu.icache.tags.occ_percent::cpu.inst     0.766462                       # Average percentage of cache occupancy
system.cpu.icache.tags.occ_percent::total     0.766462                       # Average percentage of cache occupancy
system.cpu.icache.tags.occ_task_id_blocks::1024          786                       # Occupied blocks per task id
system.cpu.icache.tags.age_task_id_blocks_1024::2           14                       # Occupied blocks per task id
system.cpu.icache.tags.age_task_id_blocks_1024::3            1                       # Occupied blocks per task id
system.cpu.icache.tags.age_task_id_blocks_1024::4          771                       # Occupied blocks per task id
system.cpu.icache.tags.occ_task_id_percent::1024     0.767578                       # Percentage of cache occupancy per task id
system.cpu.icache.tags.tag_accesses         695992771                       # Number of tag accesses
system.cpu.icache.tags.data_accesses        695992771                       # Number of data accesses
system.cpu.icache.ReadReq_hits::cpu.inst    695963359                       # number of ReadReq hits
system.cpu.icache.ReadReq_hits::total       695963359                       # number of ReadReq hits
system.cpu.icache.demand_hits::cpu.inst     695963359                       # number of demand (read+write) hits
system.cpu.icache.demand_hits::total        695963359                       # number of demand (read+write) hits
system.cpu.icache.overall_hits::cpu.inst    695963359                       # number of overall hits
system.cpu.icache.overall_hits::total       695963359                       # number of overall hits
system.cpu.icache.ReadReq_misses::cpu.inst        14706                       # number of ReadReq misses
system.cpu.icache.ReadReq_misses::total         14706                       # number of ReadReq misses
system.cpu.icache.demand_misses::cpu.inst        14706                       # number of demand (read+write) misses
system.cpu.icache.demand_misses::total          14706                       # number of demand (read+write) misses
system.cpu.icache.overall_misses::cpu.inst        14706                       # number of overall misses
system.cpu.icache.overall_misses::total         14706                       # number of overall misses
system.cpu.icache.ReadReq_miss_latency::cpu.inst    279015000                       # number of ReadReq miss cycles
system.cpu.icache.ReadReq_miss_latency::total    279015000                       # number of ReadReq miss cycles
system.cpu.icache.demand_miss_latency::cpu.inst    279015000                       # number of demand (read+write) miss cycles
system.cpu.icache.demand_miss_latency::total    279015000                       # number of demand (read+write) miss cycles
system.cpu.icache.overall_miss_latency::cpu.inst    279015000                       # number of overall miss cycles
system.cpu.icache.overall_miss_latency::total    279015000                       # number of overall miss cycles
system.cpu.icache.ReadReq_accesses::cpu.inst    695978065                       # number of ReadReq accesses(hits+misses)
system.cpu.icache.ReadReq_accesses::total    695978065                       # number of ReadReq accesses(hits+misses)
system.cpu.icache.demand_accesses::cpu.inst    695978065                       # number of demand (read+write) accesses
system.cpu.icache.demand_accesses::total    695978065                       # number of demand (read+write) accesses
system.cpu.icache.overall_accesses::cpu.inst    695978065                       # number of overall (read+write) accesses
system.cpu.icache.overall_accesses::total    695978065                       # number of overall (read+write) accesses
system.cpu.icache.ReadReq_miss_rate::cpu.inst     0.000021                       # miss rate for ReadReq accesses
system.cpu.icache.ReadReq_miss_rate::total     0.000021                       # miss rate for ReadReq accesses
system.cpu.icache.demand_miss_rate::cpu.inst     0.000021                       # miss rate for demand accesses
system.cpu.icache.demand_miss_rate::total     0.000021                       # miss rate for demand accesses
system.cpu.icache.overall_miss_rate::cpu.inst     0.000021                       # miss rate for overall accesses
system.cpu.icache.overall_miss_rate::total     0.000021                       # miss rate for overall accesses
system.cpu.icache.ReadReq_avg_miss_latency::cpu.inst 18972.868217                       # average ReadReq miss latency
system.cpu.icache.ReadReq_avg_miss_latency::total 18972.868217                       # average ReadReq miss latency
system.cpu.icache.demand_avg_miss_latency::cpu.inst 18972.868217                       # average overall miss latency
system.cpu.icache.demand_avg_miss_latency::total 18972.868217                       # average overall miss latency
system.cpu.icache.overall_avg_miss_latency::cpu.inst 18972.868217                       # average overall miss latency
system.cpu.icache.overall_avg_miss_latency::total 18972.868217                       # average overall miss latency
system.cpu.icache.blocked_cycles::no_mshrs            0                       # number of cycles access was blocked
system.cpu.icache.blocked_cycles::no_targets            0                       # number of cycles access was blocked
system.cpu.icache.blocked::no_mshrs                 0                       # number of cycles access was blocked
system.cpu.icache.blocked::no_targets               0                       # number of cycles access was blocked
system.cpu.icache.avg_blocked_cycles::no_mshrs          nan                       # average number of cycles each access was blocked
system.cpu.icache.avg_blocked_cycles::no_targets          nan                       # average number of cycles each access was blocked
system.cpu.icache.fast_writes                       0                       # number of fast writes performed
system.cpu.icache.cache_copies                      0                       # number of cache copies performed
system.cpu.icache.writebacks::writebacks        13920                       # number of writebacks
system.cpu.icache.writebacks::total             13920                       # number of writebacks
system.cpu.icache.ReadReq_mshr_misses::cpu.inst        14706                       # number of ReadReq MSHR misses
system.cpu.icache.ReadReq_mshr_misses::total        14706                       # number of ReadReq MSHR misses
system.cpu.icache.demand_mshr_misses::cpu.inst        14706                       # number of demand (read+write) MSHR misses
system.cpu.icache.demand_mshr_misses::total        14706                       # number of demand (read+write) MSHR misses
system.cpu.icache.overall_mshr_misses::cpu.inst        14706                       # number of overall MSHR misses
system.cpu.icache.overall_mshr_misses::total        14706                       # number of overall MSHR misses
system.cpu.icache.ReadReq_mshr_miss_latency::cpu.inst    264309000                       # number of ReadReq MSHR miss cycles
system.cpu.icache.ReadReq_mshr_miss_latency::total    264309000                       # number of ReadReq MSHR miss cycles
system.cpu.icache.demand_mshr_miss_latency::cpu.inst    264309000                       # number of demand (read+write) MSHR miss cycles
system.cpu.icache.demand_mshr_miss_latency::total    264309000                       # number of demand (read+write) MSHR miss cycles
system.cpu.icache.overall_mshr_miss_latency::cpu.inst    264309000                       # number of overall MSHR miss cycles
system.cpu.icache.overall_mshr_miss_latency::total    264309000                       # number of overall MSHR miss cycles
system.cpu.icache.ReadReq_mshr_miss_rate::cpu.inst     0.000021                       # mshr miss rate for ReadReq accesses
system.cpu.icache.ReadReq_mshr_miss_rate::total     0.000021                       # mshr miss rate for ReadReq accesses
system.cpu.icache.demand_mshr_miss_rate::cpu.inst     0.000021                       # mshr miss rate for demand accesses
system.cpu.icache.demand_mshr_miss_rate::total     0.000021                       # mshr miss rate for demand accesses
system.cpu.icache.overall_mshr_miss_rate::cpu.inst     0.000021                       # mshr miss rate for overall accesses
system.cpu.icache.overall_mshr_miss_rate::total     0.000021                       # mshr miss rate for overall accesses
system.cpu.icache.ReadReq_avg_mshr_miss_latency::cpu.inst 17972.868217                       # average ReadReq mshr miss latency
system.cpu.icache.ReadReq_avg_mshr_miss_latency::total 17972.868217                       # average ReadReq mshr miss latency
system.cpu.icache.demand_avg_mshr_miss_latency::cpu.inst 17972.868217                       # average overall mshr miss latency
system.cpu.icache.demand_avg_mshr_miss_latency::total 17972.868217                       # average overall mshr miss latency
system.cpu.icache.overall_avg_mshr_miss_latency::cpu.inst 17972.868217                       # average overall mshr miss latency
system.cpu.icache.overall_avg_mshr_miss_latency::total 17972.868217                       # average overall mshr miss latency
system.cpu.icache.no_allocate_misses                0                       # Number of misses that were no-allocate
system.cpu.itb_walker_cache.tags.replacements            0                       # number of replacements
system.cpu.itb_walker_cache.tags.tagsinuse            0                       # Cycle average of tags in use
system.cpu.itb_walker_cache.tags.total_refs            0                       # Total number of references to valid blocks.
system.cpu.itb_walker_cache.tags.sampled_refs            0                       # Sample count of references to valid blocks.
system.cpu.itb_walker_cache.tags.avg_refs          nan                       # Average number of references to valid blocks.
system.cpu.itb_walker_cache.tags.warmup_cycle            0                       # Cycle when the warmup percentage was hit.
system.cpu.itb_walker_cache.tags.tag_accesses            0                       # Number of tag accesses
system.cpu.itb_walker_cache.tags.data_accesses            0                       # Number of data accesses
system.cpu.itb_walker_cache.blocked_cycles::no_mshrs            0                       # number of cycles access was blocked
system.cpu.itb_walker_cache.blocked_cycles::no_targets            0                       # number of cycles access was blocked
system.cpu.itb_walker_cache.blocked::no_mshrs            0                       # number of cycles access was blocked
system.cpu.itb_walker_cache.blocked::no_targets            0                       # number of cycles access was blocked
system.cpu.itb_walker_cache.avg_blocked_cycles::no_mshrs          nan                       # average number of cycles each access was blocked
system.cpu.itb_walker_cache.avg_blocked_cycles::no_targets          nan                       # average number of cycles each access was blocked
system.cpu.itb_walker_cache.fast_writes             0                       # number of fast writes performed
system.cpu.itb_walker_cache.cache_copies            0                       # number of cache copies performed
system.cpu.itb_walker_cache.no_allocate_misses            0                       # Number of misses that were no-allocate
system.l2.tags.replacements                       433                       # number of replacements
system.l2.tags.tagsinuse                  5458.859664                       # Cycle average of tags in use
system.l2.tags.total_refs                      397378                       # Total number of references to valid blocks.
system.l2.tags.sampled_refs                      6291                       # Sample count of references to valid blocks.
system.l2.tags.avg_refs                     63.166110                       # Average number of references to valid blocks.
system.l2.tags.warmup_cycle                         0                       # Cycle when the warmup percentage was hit.
system.l2.tags.occ_blocks::writebacks     3855.019784                       # Average occupied blocks per requestor
system.l2.tags.occ_blocks::cpu.inst       1036.248683                       # Average occupied blocks per requestor
system.l2.tags.occ_blocks::cpu.data        567.591197                       # Average occupied blocks per requestor
system.l2.tags.occ_percent::writebacks       0.235292                       # Average percentage of cache occupancy
system.l2.tags.occ_percent::cpu.inst         0.063248                       # Average percentage of cache occupancy
system.l2.tags.occ_percent::cpu.data         0.034643                       # Average percentage of cache occupancy
system.l2.tags.occ_percent::total            0.333182                       # Average percentage of cache occupancy
system.l2.tags.occ_task_id_blocks::1024          5858                       # Occupied blocks per task id
system.l2.tags.age_task_id_blocks_1024::0            2                       # Occupied blocks per task id
system.l2.tags.age_task_id_blocks_1024::1           40                       # Occupied blocks per task id
system.l2.tags.age_task_id_blocks_1024::2          280                       # Occupied blocks per task id
system.l2.tags.age_task_id_blocks_1024::3          587                       # Occupied blocks per task id
system.l2.tags.age_task_id_blocks_1024::4         4949                       # Occupied blocks per task id
system.l2.tags.occ_task_id_percent::1024     0.357544                       # Percentage of cache occupancy per task id
system.l2.tags.tag_accesses                   1174976                       # Number of tag accesses
system.l2.tags.data_accesses                  1174976                       # Number of data accesses
system.l2.WritebackDirty_hits::writebacks       405265                       # number of WritebackDirty hits
system.l2.WritebackDirty_hits::total           405265                       # number of WritebackDirty hits
system.l2.WritebackClean_hits::writebacks        13919                       # number of WritebackClean hits
system.l2.WritebackClean_hits::total            13919                       # number of WritebackClean hits
system.l2.ReadExReq_hits::cpu.data             314311                       # number of ReadExReq hits
system.l2.ReadExReq_hits::total                314311                       # number of ReadExReq hits
system.l2.ReadCleanReq_hits::cpu.inst           13375                       # number of ReadCleanReq hits
system.l2.ReadCleanReq_hits::total              13375                       # number of ReadCleanReq hits
system.l2.ReadSharedReq_hits::cpu.data          91459                       # number of ReadSharedReq hits
system.l2.ReadSharedReq_hits::total             91459                       # number of ReadSharedReq hits
system.l2.demand_hits::cpu.inst                 13375                       # number of demand (read+write) hits
system.l2.demand_hits::cpu.data                405770                       # number of demand (read+write) hits
system.l2.demand_hits::total                   419145                       # number of demand (read+write) hits
system.l2.overall_hits::cpu.inst                13375                       # number of overall hits
system.l2.overall_hits::cpu.data               405770                       # number of overall hits
system.l2.overall_hits::total                  419145                       # number of overall hits
system.l2.ReadExReq_misses::cpu.data             3781                       # number of ReadExReq misses
system.l2.ReadExReq_misses::total                3781                       # number of ReadExReq misses
system.l2.ReadCleanReq_misses::cpu.inst          1331                       # number of ReadCleanReq misses
system.l2.ReadCleanReq_misses::total             1331                       # number of ReadCleanReq misses
system.l2.ReadSharedReq_misses::cpu.data         1945                       # number of ReadSharedReq misses
system.l2.ReadSharedReq_misses::total            1945                       # number of ReadSharedReq misses
system.l2.demand_misses::cpu.inst                1331                       # number of demand (read+write) misses
system.l2.demand_misses::cpu.data                5726                       # number of demand (read+write) misses
system.l2.demand_misses::total                   7057                       # number of demand (read+write) misses
system.l2.overall_misses::cpu.inst               1331                       # number of overall misses
system.l2.overall_misses::cpu.data               5726                       # number of overall misses
system.l2.overall_misses::total                  7057                       # number of overall misses
system.l2.ReadExReq_miss_latency::cpu.data    308426000                       # number of ReadExReq miss cycles
system.l2.ReadExReq_miss_latency::total     308426000                       # number of ReadExReq miss cycles
system.l2.ReadCleanReq_miss_latency::cpu.inst    101803000                       # number of ReadCleanReq miss cycles
system.l2.ReadCleanReq_miss_latency::total    101803000                       # number of ReadCleanReq miss cycles
system.l2.ReadSharedReq_miss_latency::cpu.data    149866000                       # number of ReadSharedReq miss cycles
system.l2.ReadSharedReq_miss_latency::total    149866000                       # number of ReadSharedReq miss cycles
system.l2.demand_miss_latency::cpu.inst     101803000                       # number of demand (read+write) miss cycles
system.l2.demand_miss_latency::cpu.data     458292000                       # number of demand (read+write) miss cycles
system.l2.demand_miss_latency::total        560095000                       # number of demand (read+write) miss cycles
system.l2.overall_miss_latency::cpu.inst    101803000                       # number of overall miss cycles
system.l2.overall_miss_latency::cpu.data    458292000                       # number of overall miss cycles
system.l2.overall_miss_latency::total       560095000                       # number of overall miss cycles
system.l2.WritebackDirty_accesses::writebacks       405265                       # number of WritebackDirty accesses(hits+misses)
system.l2.WritebackDirty_accesses::total       405265                       # number of WritebackDirty accesses(hits+misses)
system.l2.WritebackClean_accesses::writebacks        13919                       # number of WritebackClean accesses(hits+misses)
system.l2.WritebackClean_accesses::total        13919                       # number of WritebackClean accesses(hits+misses)
system.l2.ReadExReq_accesses::cpu.data         318092                       # number of ReadExReq accesses(hits+misses)
system.l2.ReadExReq_accesses::total            318092                       # number of ReadExReq accesses(hits+misses)
system.l2.ReadCleanReq_accesses::cpu.inst        14706                       # number of ReadCleanReq accesses(hits+misses)
system.l2.ReadCleanReq_accesses::total          14706                       # number of ReadCleanReq accesses(hits+misses)
system.l2.ReadSharedReq_accesses::cpu.data        93404                       # number of ReadSharedReq accesses(hits+misses)
system.l2.ReadSharedReq_accesses::total         93404                       # number of ReadSharedReq accesses(hits+misses)
system.l2.demand_accesses::cpu.inst             14706                       # number of demand (read+write) accesses
system.l2.demand_accesses::cpu.data            411496                       # number of demand (read+write) accesses
system.l2.demand_accesses::total               426202                       # number of demand (read+write) accesses
system.l2.overall_accesses::cpu.inst            14706                       # number of overall (read+write) accesses
system.l2.overall_accesses::cpu.data           411496                       # number of overall (read+write) accesses
system.l2.overall_accesses::total              426202                       # number of overall (read+write) accesses
system.l2.ReadExReq_miss_rate::cpu.data      0.011886                       # miss rate for ReadExReq accesses
system.l2.ReadExReq_miss_rate::total         0.011886                       # miss rate for ReadExReq accesses
system.l2.ReadCleanReq_miss_rate::cpu.inst     0.090507                       # miss rate for ReadCleanReq accesses
system.l2.ReadCleanReq_miss_rate::total      0.090507                       # miss rate for ReadCleanReq accesses
system.l2.ReadSharedReq_miss_rate::cpu.data     0.020824                       # miss rate for ReadSharedReq accesses
system.l2.ReadSharedReq_miss_rate::total     0.020824                       # miss rate for ReadSharedReq accesses
system.l2.demand_miss_rate::cpu.inst         0.090507                       # miss rate for demand accesses
system.l2.demand_miss_rate::cpu.data         0.013915                       # miss rate for demand accesses
system.l2.demand_miss_rate::total            0.016558                       # miss rate for demand accesses
system.l2.overall_miss_rate::cpu.inst        0.090507                       # miss rate for overall accesses
system.l2.overall_miss_rate::cpu.data        0.013915                       # miss rate for overall accesses
system.l2.overall_miss_rate::total           0.016558                       # miss rate for overall accesses
system.l2.ReadExReq_avg_miss_latency::cpu.data 81572.599841                       # average ReadExReq miss latency
system.l2.ReadExReq_avg_miss_latency::total 81572.599841                       # average ReadExReq miss latency
system.l2.ReadCleanReq_avg_miss_latency::cpu.inst 76486.100676                       # average ReadCleanReq miss latency
system.l2.ReadCleanReq_avg_miss_latency::total 76486.100676                       # average ReadCleanReq miss latency
system.l2.ReadSharedReq_avg_miss_latency::cpu.data 77051.928021                       # average ReadSharedReq miss latency
system.l2.ReadSharedReq_avg_miss_latency::total 77051.928021                       # average ReadSharedReq miss latency
system.l2.demand_avg_miss_latency::cpu.inst 76486.100676                       # average overall miss latency
system.l2.demand_avg_miss_latency::cpu.data 80037.024101                       # average overall miss latency
system.l2.demand_avg_miss_latency::total 79367.294885                       # average overall miss latency
system.l2.overall_avg_miss_latency::cpu.inst 76486.100676                       # average overall miss latency
system.l2.overall_avg_miss_latency::cpu.data 80037.024101                       # average overall miss latency
system.l2.overall_avg_miss_latency::total 79367.294885                       # average overall miss latency
system.l2.blocked_cycles::no_mshrs                  0                       # number of cycles access was blocked
system.l2.blocked_cycles::no_targets                0                       # number of cycles access was blocked
system.l2.blocked::no_mshrs                         0                       # number of cycles access was blocked
system.l2.blocked::no_targets                       0                       # number of cycles access was blocked
system.l2.avg_blocked_cycles::no_mshrs            nan                       # average number of cycles each access was blocked
system.l2.avg_blocked_cycles::no_targets          nan                       # average number of cycles each access was blocked
system.l2.fast_writes                               0                       # number of fast writes performed
system.l2.cache_copies                              0                       # number of cache copies performed
system.l2.writebacks::writebacks                   24                       # number of writebacks
system.l2.writebacks::total                        24                       # number of writebacks
system.l2.CleanEvict_mshr_misses::writebacks           51                       # number of CleanEvict MSHR misses
system.l2.CleanEvict_mshr_misses::total            51                       # number of CleanEvict MSHR misses
system.l2.ReadExReq_mshr_misses::cpu.data         3781                       # number of ReadExReq MSHR misses
system.l2.ReadExReq_mshr_misses::total           3781                       # number of ReadExReq MSHR misses
system.l2.ReadCleanReq_mshr_misses::cpu.inst         1331                       # number of ReadCleanReq MSHR misses
system.l2.ReadCleanReq_mshr_misses::total         1331                       # number of ReadCleanReq MSHR misses
system.l2.ReadSharedReq_mshr_misses::cpu.data         1945                       # number of ReadSharedReq MSHR misses
system.l2.ReadSharedReq_mshr_misses::total         1945                       # number of ReadSharedReq MSHR misses
system.l2.demand_mshr_misses::cpu.inst           1331                       # number of demand (read+write) MSHR misses
system.l2.demand_mshr_misses::cpu.data           5726                       # number of demand (read+write) MSHR misses
system.l2.demand_mshr_misses::total              7057                       # number of demand (read+write) MSHR misses
system.l2.overall_mshr_misses::cpu.inst          1331                       # number of overall MSHR misses
system.l2.overall_mshr_misses::cpu.data          5726                       # number of overall MSHR misses
system.l2.overall_mshr_misses::total             7057                       # number of overall MSHR misses
system.l2.ReadExReq_mshr_miss_latency::cpu.data    270616000                       # number of ReadExReq MSHR miss cycles
system.l2.ReadExReq_mshr_miss_latency::total    270616000                       # number of ReadExReq MSHR miss cycles
system.l2.ReadCleanReq_mshr_miss_latency::cpu.inst     88493000                       # number of ReadCleanReq MSHR miss cycles
system.l2.ReadCleanReq_mshr_miss_latency::total     88493000                       # number of ReadCleanReq MSHR miss cycles
system.l2.ReadSharedReq_mshr_miss_latency::cpu.data    130416000                       # number of ReadSharedReq MSHR miss cycles
system.l2.ReadSharedReq_mshr_miss_latency::total    130416000                       # number of ReadSharedReq MSHR miss cycles
system.l2.demand_mshr_miss_latency::cpu.inst     88493000                       # number of demand (read+write) MSHR miss cycles
system.l2.demand_mshr_miss_latency::cpu.data    401032000                       # number of demand (read+write) MSHR miss cycles
system.l2.demand_mshr_miss_latency::total    489525000                       # number of demand (read+write) MSHR miss cycles
system.l2.overall_mshr_miss_latency::cpu.inst     88493000                       # number of overall MSHR miss cycles
system.l2.overall_mshr_miss_latency::cpu.data    401032000                       # number of overall MSHR miss cycles
system.l2.overall_mshr_miss_latency::total    489525000                       # number of overall MSHR miss cycles
system.l2.CleanEvict_mshr_miss_rate::writebacks          inf                       # mshr miss rate for CleanEvict accesses
system.l2.CleanEvict_mshr_miss_rate::total          inf                       # mshr miss rate for CleanEvict accesses
system.l2.ReadExReq_mshr_miss_rate::cpu.data     0.011886                       # mshr miss rate for ReadExReq accesses
system.l2.ReadExReq_mshr_miss_rate::total     0.011886                       # mshr miss rate for ReadExReq accesses
system.l2.ReadCleanReq_mshr_miss_rate::cpu.inst     0.090507                       # mshr miss rate for ReadCleanReq accesses
system.l2.ReadCleanReq_mshr_miss_rate::total     0.090507                       # mshr miss rate for ReadCleanReq accesses
system.l2.ReadSharedReq_mshr_miss_rate::cpu.data     0.020824                       # mshr miss rate for ReadSharedReq accesses
system.l2.ReadSharedReq_mshr_miss_rate::total     0.020824                       # mshr miss rate for ReadSharedReq accesses
system.l2.demand_mshr_miss_rate::cpu.inst     0.090507                       # mshr miss rate for demand accesses
system.l2.demand_mshr_miss_rate::cpu.data     0.013915                       # mshr miss rate for demand accesses
system.l2.demand_mshr_miss_rate::total       0.016558                       # mshr miss rate for demand accesses
system.l2.overall_mshr_miss_rate::cpu.inst     0.090507                       # mshr miss rate for overall accesses
system.l2.overall_mshr_miss_rate::cpu.data     0.013915                       # mshr miss rate for overall accesses
system.l2.overall_mshr_miss_rate::total      0.016558                       # mshr miss rate for overall accesses
system.l2.ReadExReq_avg_mshr_miss_latency::cpu.data 71572.599841                       # average ReadExReq mshr miss latency
system.l2.ReadExReq_avg_mshr_miss_latency::total 71572.599841                       # average ReadExReq mshr miss latency
system.l2.ReadCleanReq_avg_mshr_miss_latency::cpu.inst 66486.100676                       # average ReadCleanReq mshr miss latency
system.l2.ReadCleanReq_avg_mshr_miss_latency::total 66486.100676                       # average ReadCleanReq mshr miss latency
system.l2.ReadSharedReq_avg_mshr_miss_latency::cpu.data 67051.928021                       # average ReadSharedReq mshr miss latency
system.l2.ReadSharedReq_avg_mshr_miss_latency::total 67051.928021                       # average ReadSharedReq mshr miss latency
system.l2.demand_avg_mshr_miss_latency::cpu.inst 66486.100676                       # average overall mshr miss latency
system.l2.demand_avg_mshr_miss_latency::cpu.data 70037.024101                       # average overall mshr miss latency
system.l2.demand_avg_mshr_miss_latency::total 69367.294885                       # average overall mshr miss latency
system.l2.overall_avg_mshr_miss_latency::cpu.inst 66486.100676                       # average overall mshr miss latency
system.l2.overall_avg_mshr_miss_latency::cpu.data 70037.024101                       # average overall mshr miss latency
system.l2.overall_avg_mshr_miss_latency::total 69367.294885                       # average overall mshr miss latency
system.l2.no_allocate_misses                        0                       # Number of misses that were no-allocate
system.membus.trans_dist::ReadResp               3276                       # Transaction distribution
system.membus.trans_dist::WritebackDirty           24                       # Transaction distribution
system.membus.trans_dist::CleanEvict              221                       # Transaction distribution
system.membus.trans_dist::ReadExReq              3781                       # Transaction distribution
system.membus.trans_dist::ReadExResp             3781                       # Transaction distribution
system.membus.trans_dist::ReadSharedReq          3276                       # Transaction distribution
system.membus.pkt_count_system.l2.mem_side::system.mem_ctrls.port        14359                       # Packet count per connected master and slave (bytes)
system.membus.pkt_count_system.l2.mem_side::total        14359                       # Packet count per connected master and slave (bytes)
system.membus.pkt_count::total                  14359                       # Packet count per connected master and slave (bytes)
system.membus.pkt_size_system.l2.mem_side::system.mem_ctrls.port       453184                       # Cumulative packet size per connected master and slave (bytes)
system.membus.pkt_size_system.l2.mem_side::total       453184                       # Cumulative packet size per connected master and slave (bytes)
system.membus.pkt_size::total                  453184                       # Cumulative packet size per connected master and slave (bytes)
system.membus.snoops                                0                       # Total snoops (count)
system.membus.snoop_fanout::samples              7302                       # Request fanout histogram
system.membus.snoop_fanout::mean                    0                       # Request fanout histogram
system.membus.snoop_fanout::stdev                   0                       # Request fanout histogram
system.membus.snoop_fanout::underflows              0      0.00%      0.00% # Request fanout histogram
system.membus.snoop_fanout::0                    7302    100.00%    100.00% # Request fanout histogram
system.membus.snoop_fanout::1                       0      0.00%    100.00% # Request fanout histogram
system.membus.snoop_fanout::overflows               0      0.00%    100.00% # Request fanout histogram
system.membus.snoop_fanout::min_value               0                       # Request fanout histogram
system.membus.snoop_fanout::max_value               0                       # Request fanout histogram
system.membus.snoop_fanout::total                7302                       # Request fanout histogram
system.membus.reqLayer2.occupancy             8139500                       # Layer occupancy (ticks)
system.membus.reqLayer2.utilization               0.0                       # Layer utilization (%)
system.membus.respLayer1.occupancy           37510750                       # Layer occupancy (ticks)
system.membus.respLayer1.utilization              0.0                       # Layer utilization (%)
system.tol2bus.snoop_filter.tot_requests       850594                       # Total number of requests made to the snoop filter.
system.tol2bus.snoop_filter.hit_single_requests       424392                       # Number of requests hitting in the snoop filter with a single holder of the requested data.
system.tol2bus.snoop_filter.hit_multi_requests            1                       # Number of requests hitting in the snoop filter with multiple (>1) holders of the requested data.
system.tol2bus.snoop_filter.tot_snoops            239                       # Total number of snoops made to the snoop filter.
system.tol2bus.snoop_filter.hit_single_snoops          239                       # Number of snoops hitting in the snoop filter with a single holder of the requested data.
system.tol2bus.snoop_filter.hit_multi_snoops            0                       # Number of snoops hitting in the snoop filter with multiple (>1) holders of the requested data.
system.tol2bus.trans_dist::ReadResp            108110                       # Transaction distribution
system.tol2bus.trans_dist::WritebackDirty       405289                       # Transaction distribution
system.tol2bus.trans_dist::WritebackClean        13919                       # Transaction distribution
system.tol2bus.trans_dist::CleanEvict            5616                       # Transaction distribution
system.tol2bus.trans_dist::ReadExReq           318092                       # Transaction distribution
system.tol2bus.trans_dist::ReadExResp          318092                       # Transaction distribution
system.tol2bus.trans_dist::ReadCleanReq         14706                       # Transaction distribution
system.tol2bus.trans_dist::ReadSharedReq        93404                       # Transaction distribution
system.tol2bus.pkt_count_system.cpu.icache.mem_side::system.l2.cpu_side        43331                       # Packet count per connected master and slave (bytes)
system.tol2bus.pkt_count_system.cpu.dcache.mem_side::system.l2.cpu_side      1233464                       # Packet count per connected master and slave (bytes)
system.tol2bus.pkt_count::total               1276795                       # Packet count per connected master and slave (bytes)
system.tol2bus.pkt_size_system.cpu.icache.mem_side::system.l2.cpu_side      1832000                       # Cumulative packet size per connected master and slave (bytes)
system.tol2bus.pkt_size_system.cpu.dcache.mem_side::system.l2.cpu_side     52272704                       # Cumulative packet size per connected master and slave (bytes)
system.tol2bus.pkt_size::total               54104704                       # Cumulative packet size per connected master and slave (bytes)
system.tol2bus.snoops                             433                       # Total snoops (count)
system.tol2bus.snoop_fanout::samples           426635                       # Request fanout histogram
system.tol2bus.snoop_fanout::mean            0.000563                       # Request fanout histogram
system.tol2bus.snoop_fanout::stdev           0.023711                       # Request fanout histogram
system.tol2bus.snoop_fanout::underflows             0      0.00%      0.00% # Request fanout histogram
system.tol2bus.snoop_fanout::0                 426395     99.94%     99.94% # Request fanout histogram
system.tol2bus.snoop_fanout::1                    240      0.06%    100.00% # Request fanout histogram
system.tol2bus.snoop_fanout::2                      0      0.00%    100.00% # Request fanout histogram
system.tol2bus.snoop_fanout::3                      0      0.00%    100.00% # Request fanout histogram
system.tol2bus.snoop_fanout::4                      0      0.00%    100.00% # Request fanout histogram
system.tol2bus.snoop_fanout::overflows              0      0.00%    100.00% # Request fanout histogram
system.tol2bus.snoop_fanout::min_value              0                       # Request fanout histogram
system.tol2bus.snoop_fanout::max_value              1                       # Request fanout histogram
system.tol2bus.snoop_fanout::total             426635                       # Request fanout histogram
system.tol2bus.reqLayer0.occupancy          844482000                       # Layer occupancy (ticks)
system.tol2bus.reqLayer0.utilization              0.1                       # Layer utilization (%)
system.tol2bus.respLayer0.occupancy          22059000                       # Layer occupancy (ticks)
system.tol2bus.respLayer0.utilization             0.0                       # Layer utilization (%)
system.tol2bus.respLayer1.occupancy         617244000                       # Layer occupancy (ticks)
system.tol2bus.respLayer1.utilization             0.1                       # Layer utilization (%)

---------- End Simulation Statistics   ----------
