
---------- Begin Simulation Statistics ----------
sim_seconds                                  0.970050                       # Number of seconds simulated
sim_ticks                                970050457500                       # Number of ticks simulated
final_tick                               970050457500                       # Number of ticks from beginning of simulation (restored from checkpoints and never reset)
sim_freq                                 1000000000000                       # Frequency of simulated ticks
host_inst_rate                                 262525                       # Simulator instruction rate (inst/s)
host_op_rate                                   338602                       # Simulator op (including micro ops) rate (op/s)
host_tick_rate                              509324102                       # Simulator tick rate (ticks/s)
host_mem_usage                                 833548                       # Number of bytes of host memory used
host_seconds                                  1904.58                       # Real time elapsed on the host
sim_insts                                   500000000                       # Number of instructions simulated
sim_ops                                     644895733                       # Number of ops (including micro ops) simulated
system.voltage_domain.voltage                       1                       # Voltage in Volts
system.clk_domain.clock                          1000                       # Clock period in ticks
system.mem_ctrls.bytes_read::cpu.inst          135040                       # Number of bytes read from this memory
system.mem_ctrls.bytes_read::cpu.data          368064                       # Number of bytes read from this memory
system.mem_ctrls.bytes_read::total             503104                       # Number of bytes read from this memory
system.mem_ctrls.bytes_inst_read::cpu.inst       135040                       # Number of instructions bytes read from this memory
system.mem_ctrls.bytes_inst_read::total        135040                       # Number of instructions bytes read from this memory
system.mem_ctrls.bytes_written::writebacks         3968                       # Number of bytes written to this memory
system.mem_ctrls.bytes_written::total            3968                       # Number of bytes written to this memory
system.mem_ctrls.num_reads::cpu.inst             2110                       # Number of read requests responded to by this memory
system.mem_ctrls.num_reads::cpu.data             5751                       # Number of read requests responded to by this memory
system.mem_ctrls.num_reads::total                7861                       # Number of read requests responded to by this memory
system.mem_ctrls.num_writes::writebacks            62                       # Number of write requests responded to by this memory
system.mem_ctrls.num_writes::total                 62                       # Number of write requests responded to by this memory
system.mem_ctrls.bw_read::cpu.inst             139209                       # Total read bandwidth from this memory (bytes/s)
system.mem_ctrls.bw_read::cpu.data             379428                       # Total read bandwidth from this memory (bytes/s)
system.mem_ctrls.bw_read::total                518637                       # Total read bandwidth from this memory (bytes/s)
system.mem_ctrls.bw_inst_read::cpu.inst        139209                       # Instruction read bandwidth from this memory (bytes/s)
system.mem_ctrls.bw_inst_read::total           139209                       # Instruction read bandwidth from this memory (bytes/s)
system.mem_ctrls.bw_write::writebacks            4091                       # Write bandwidth from this memory (bytes/s)
system.mem_ctrls.bw_write::total                 4091                       # Write bandwidth from this memory (bytes/s)
system.mem_ctrls.bw_total::writebacks            4091                       # Total bandwidth to/from this memory (bytes/s)
system.mem_ctrls.bw_total::cpu.inst            139209                       # Total bandwidth to/from this memory (bytes/s)
system.mem_ctrls.bw_total::cpu.data            379428                       # Total bandwidth to/from this memory (bytes/s)
system.mem_ctrls.bw_total::total               522727                       # Total bandwidth to/from this memory (bytes/s)
system.mem_ctrls.readReqs                        7861                       # Number of read requests accepted
system.mem_ctrls.writeReqs                         62                       # Number of write requests accepted
system.mem_ctrls.readBursts                      7861                       # Number of DRAM read bursts, including those serviced by the write queue
system.mem_ctrls.writeBursts                       62                       # Number of DRAM write bursts, including those merged in the write queue
system.mem_ctrls.bytesReadDRAM                 500928                       # Total number of bytes read from DRAM
system.mem_ctrls.bytesReadWrQ                    2176                       # Total number of bytes read from write queue
system.mem_ctrls.bytesWritten                    1024                       # Total number of bytes written to DRAM
system.mem_ctrls.bytesReadSys                  503104                       # Total read bytes from the system interface side
system.mem_ctrls.bytesWrittenSys                 3968                       # Total written bytes from the system interface side
system.mem_ctrls.servicedByWrQ                     34                       # Number of DRAM read bursts serviced by the write queue
system.mem_ctrls.mergedWrBursts                    18                       # Number of DRAM write bursts merged with an existing one
system.mem_ctrls.neitherReadNorWriteReqs         1065                       # Number of requests that are neither read nor write
system.mem_ctrls.perBankRdBursts::0               318                       # Per bank write bursts
system.mem_ctrls.perBankRdBursts::1               346                       # Per bank write bursts
system.mem_ctrls.perBankRdBursts::2               432                       # Per bank write bursts
system.mem_ctrls.perBankRdBursts::3               318                       # Per bank write bursts
system.mem_ctrls.perBankRdBursts::4              1249                       # Per bank write bursts
system.mem_ctrls.perBankRdBursts::5               410                       # Per bank write bursts
system.mem_ctrls.perBankRdBursts::6               341                       # Per bank write bursts
system.mem_ctrls.perBankRdBursts::7               420                       # Per bank write bursts
system.mem_ctrls.perBankRdBursts::8               512                       # Per bank write bursts
system.mem_ctrls.perBankRdBursts::9               514                       # Per bank write bursts
system.mem_ctrls.perBankRdBursts::10              555                       # Per bank write bursts
system.mem_ctrls.perBankRdBursts::11              591                       # Per bank write bursts
system.mem_ctrls.perBankRdBursts::12              493                       # Per bank write bursts
system.mem_ctrls.perBankRdBursts::13              448                       # Per bank write bursts
system.mem_ctrls.perBankRdBursts::14              431                       # Per bank write bursts
system.mem_ctrls.perBankRdBursts::15              449                       # Per bank write bursts
system.mem_ctrls.perBankWrBursts::0                 0                       # Per bank write bursts
system.mem_ctrls.perBankWrBursts::1                 0                       # Per bank write bursts
system.mem_ctrls.perBankWrBursts::2                 1                       # Per bank write bursts
system.mem_ctrls.perBankWrBursts::3                 0                       # Per bank write bursts
system.mem_ctrls.perBankWrBursts::4                 3                       # Per bank write bursts
system.mem_ctrls.perBankWrBursts::5                 0                       # Per bank write bursts
system.mem_ctrls.perBankWrBursts::6                 0                       # Per bank write bursts
system.mem_ctrls.perBankWrBursts::7                 6                       # Per bank write bursts
system.mem_ctrls.perBankWrBursts::8                 6                       # Per bank write bursts
system.mem_ctrls.perBankWrBursts::9                 0                       # Per bank write bursts
system.mem_ctrls.perBankWrBursts::10                0                       # Per bank write bursts
system.mem_ctrls.perBankWrBursts::11                0                       # Per bank write bursts
system.mem_ctrls.perBankWrBursts::12                0                       # Per bank write bursts
system.mem_ctrls.perBankWrBursts::13                0                       # Per bank write bursts
system.mem_ctrls.perBankWrBursts::14                0                       # Per bank write bursts
system.mem_ctrls.perBankWrBursts::15                0                       # Per bank write bursts
system.mem_ctrls.numRdRetry                         0                       # Number of times read queue was full causing retry
system.mem_ctrls.numWrRetry                         0                       # Number of times write queue was full causing retry
system.mem_ctrls.totGap                  969425105500                       # Total gap between requests
system.mem_ctrls.readPktSize::0                     0                       # Read request sizes (log2)
system.mem_ctrls.readPktSize::1                     0                       # Read request sizes (log2)
system.mem_ctrls.readPktSize::2                     0                       # Read request sizes (log2)
system.mem_ctrls.readPktSize::3                     0                       # Read request sizes (log2)
system.mem_ctrls.readPktSize::4                     0                       # Read request sizes (log2)
system.mem_ctrls.readPktSize::5                     0                       # Read request sizes (log2)
system.mem_ctrls.readPktSize::6                  7861                       # Read request sizes (log2)
system.mem_ctrls.writePktSize::0                    0                       # Write request sizes (log2)
system.mem_ctrls.writePktSize::1                    0                       # Write request sizes (log2)
system.mem_ctrls.writePktSize::2                    0                       # Write request sizes (log2)
system.mem_ctrls.writePktSize::3                    0                       # Write request sizes (log2)
system.mem_ctrls.writePktSize::4                    0                       # Write request sizes (log2)
system.mem_ctrls.writePktSize::5                    0                       # Write request sizes (log2)
system.mem_ctrls.writePktSize::6                   62                       # Write request sizes (log2)
system.mem_ctrls.rdQLenPdf::0                    7147                       # What read queue length does an incoming req see
system.mem_ctrls.rdQLenPdf::1                     635                       # What read queue length does an incoming req see
system.mem_ctrls.rdQLenPdf::2                      38                       # What read queue length does an incoming req see
system.mem_ctrls.rdQLenPdf::3                       7                       # What read queue length does an incoming req see
system.mem_ctrls.rdQLenPdf::4                       0                       # What read queue length does an incoming req see
system.mem_ctrls.rdQLenPdf::5                       0                       # What read queue length does an incoming req see
system.mem_ctrls.rdQLenPdf::6                       0                       # What read queue length does an incoming req see
system.mem_ctrls.rdQLenPdf::7                       0                       # What read queue length does an incoming req see
system.mem_ctrls.rdQLenPdf::8                       0                       # What read queue length does an incoming req see
system.mem_ctrls.rdQLenPdf::9                       0                       # What read queue length does an incoming req see
system.mem_ctrls.rdQLenPdf::10                      0                       # What read queue length does an incoming req see
system.mem_ctrls.rdQLenPdf::11                      0                       # What read queue length does an incoming req see
system.mem_ctrls.rdQLenPdf::12                      0                       # What read queue length does an incoming req see
system.mem_ctrls.rdQLenPdf::13                      0                       # What read queue length does an incoming req see
system.mem_ctrls.rdQLenPdf::14                      0                       # What read queue length does an incoming req see
system.mem_ctrls.rdQLenPdf::15                      0                       # What read queue length does an incoming req see
system.mem_ctrls.rdQLenPdf::16                      0                       # What read queue length does an incoming req see
system.mem_ctrls.rdQLenPdf::17                      0                       # What read queue length does an incoming req see
system.mem_ctrls.rdQLenPdf::18                      0                       # What read queue length does an incoming req see
system.mem_ctrls.rdQLenPdf::19                      0                       # What read queue length does an incoming req see
system.mem_ctrls.rdQLenPdf::20                      0                       # What read queue length does an incoming req see
system.mem_ctrls.rdQLenPdf::21                      0                       # What read queue length does an incoming req see
system.mem_ctrls.rdQLenPdf::22                      0                       # What read queue length does an incoming req see
system.mem_ctrls.rdQLenPdf::23                      0                       # What read queue length does an incoming req see
system.mem_ctrls.rdQLenPdf::24                      0                       # What read queue length does an incoming req see
system.mem_ctrls.rdQLenPdf::25                      0                       # What read queue length does an incoming req see
system.mem_ctrls.rdQLenPdf::26                      0                       # What read queue length does an incoming req see
system.mem_ctrls.rdQLenPdf::27                      0                       # What read queue length does an incoming req see
system.mem_ctrls.rdQLenPdf::28                      0                       # What read queue length does an incoming req see
system.mem_ctrls.rdQLenPdf::29                      0                       # What read queue length does an incoming req see
system.mem_ctrls.rdQLenPdf::30                      0                       # What read queue length does an incoming req see
system.mem_ctrls.rdQLenPdf::31                      0                       # What read queue length does an incoming req see
system.mem_ctrls.wrQLenPdf::0                       1                       # What write queue length does an incoming req see
system.mem_ctrls.wrQLenPdf::1                       1                       # What write queue length does an incoming req see
system.mem_ctrls.wrQLenPdf::2                       1                       # What write queue length does an incoming req see
system.mem_ctrls.wrQLenPdf::3                       1                       # What write queue length does an incoming req see
system.mem_ctrls.wrQLenPdf::4                       1                       # What write queue length does an incoming req see
system.mem_ctrls.wrQLenPdf::5                       1                       # What write queue length does an incoming req see
system.mem_ctrls.wrQLenPdf::6                       1                       # What write queue length does an incoming req see
system.mem_ctrls.wrQLenPdf::7                       1                       # What write queue length does an incoming req see
system.mem_ctrls.wrQLenPdf::8                       1                       # What write queue length does an incoming req see
system.mem_ctrls.wrQLenPdf::9                       1                       # What write queue length does an incoming req see
system.mem_ctrls.wrQLenPdf::10                      1                       # What write queue length does an incoming req see
system.mem_ctrls.wrQLenPdf::11                      1                       # What write queue length does an incoming req see
system.mem_ctrls.wrQLenPdf::12                      1                       # What write queue length does an incoming req see
system.mem_ctrls.wrQLenPdf::13                      1                       # What write queue length does an incoming req see
system.mem_ctrls.wrQLenPdf::14                      1                       # What write queue length does an incoming req see
system.mem_ctrls.wrQLenPdf::15                      1                       # What write queue length does an incoming req see
system.mem_ctrls.wrQLenPdf::16                      1                       # What write queue length does an incoming req see
system.mem_ctrls.wrQLenPdf::17                      2                       # What write queue length does an incoming req see
system.mem_ctrls.wrQLenPdf::18                      2                       # What write queue length does an incoming req see
system.mem_ctrls.wrQLenPdf::19                      2                       # What write queue length does an incoming req see
system.mem_ctrls.wrQLenPdf::20                      2                       # What write queue length does an incoming req see
system.mem_ctrls.wrQLenPdf::21                      2                       # What write queue length does an incoming req see
system.mem_ctrls.wrQLenPdf::22                      2                       # What write queue length does an incoming req see
system.mem_ctrls.wrQLenPdf::23                      2                       # What write queue length does an incoming req see
system.mem_ctrls.wrQLenPdf::24                      2                       # What write queue length does an incoming req see
system.mem_ctrls.wrQLenPdf::25                      2                       # What write queue length does an incoming req see
system.mem_ctrls.wrQLenPdf::26                      2                       # What write queue length does an incoming req see
system.mem_ctrls.wrQLenPdf::27                      2                       # What write queue length does an incoming req see
system.mem_ctrls.wrQLenPdf::28                      1                       # What write queue length does an incoming req see
system.mem_ctrls.wrQLenPdf::29                      1                       # What write queue length does an incoming req see
system.mem_ctrls.wrQLenPdf::30                      1                       # What write queue length does an incoming req see
system.mem_ctrls.wrQLenPdf::31                      1                       # What write queue length does an incoming req see
system.mem_ctrls.wrQLenPdf::32                      1                       # What write queue length does an incoming req see
system.mem_ctrls.wrQLenPdf::33                      0                       # What write queue length does an incoming req see
system.mem_ctrls.wrQLenPdf::34                      0                       # What write queue length does an incoming req see
system.mem_ctrls.wrQLenPdf::35                      0                       # What write queue length does an incoming req see
system.mem_ctrls.wrQLenPdf::36                      0                       # What write queue length does an incoming req see
system.mem_ctrls.wrQLenPdf::37                      0                       # What write queue length does an incoming req see
system.mem_ctrls.wrQLenPdf::38                      0                       # What write queue length does an incoming req see
system.mem_ctrls.wrQLenPdf::39                      0                       # What write queue length does an incoming req see
system.mem_ctrls.wrQLenPdf::40                      0                       # What write queue length does an incoming req see
system.mem_ctrls.wrQLenPdf::41                      0                       # What write queue length does an incoming req see
system.mem_ctrls.wrQLenPdf::42                      0                       # What write queue length does an incoming req see
system.mem_ctrls.wrQLenPdf::43                      0                       # What write queue length does an incoming req see
system.mem_ctrls.wrQLenPdf::44                      0                       # What write queue length does an incoming req see
system.mem_ctrls.wrQLenPdf::45                      0                       # What write queue length does an incoming req see
system.mem_ctrls.wrQLenPdf::46                      0                       # What write queue length does an incoming req see
system.mem_ctrls.wrQLenPdf::47                      0                       # What write queue length does an incoming req see
system.mem_ctrls.wrQLenPdf::48                      0                       # What write queue length does an incoming req see
system.mem_ctrls.wrQLenPdf::49                      0                       # What write queue length does an incoming req see
system.mem_ctrls.wrQLenPdf::50                      0                       # What write queue length does an incoming req see
system.mem_ctrls.wrQLenPdf::51                      0                       # What write queue length does an incoming req see
system.mem_ctrls.wrQLenPdf::52                      0                       # What write queue length does an incoming req see
system.mem_ctrls.wrQLenPdf::53                      0                       # What write queue length does an incoming req see
system.mem_ctrls.wrQLenPdf::54                      0                       # What write queue length does an incoming req see
system.mem_ctrls.wrQLenPdf::55                      0                       # What write queue length does an incoming req see
system.mem_ctrls.wrQLenPdf::56                      0                       # What write queue length does an incoming req see
system.mem_ctrls.wrQLenPdf::57                      0                       # What write queue length does an incoming req see
system.mem_ctrls.wrQLenPdf::58                      0                       # What write queue length does an incoming req see
system.mem_ctrls.wrQLenPdf::59                      0                       # What write queue length does an incoming req see
system.mem_ctrls.wrQLenPdf::60                      0                       # What write queue length does an incoming req see
system.mem_ctrls.wrQLenPdf::61                      0                       # What write queue length does an incoming req see
system.mem_ctrls.wrQLenPdf::62                      0                       # What write queue length does an incoming req see
system.mem_ctrls.wrQLenPdf::63                      0                       # What write queue length does an incoming req see
system.mem_ctrls.bytesPerActivate::samples         2881                       # Bytes accessed per row activation
system.mem_ctrls.bytesPerActivate::mean    174.228393                       # Bytes accessed per row activation
system.mem_ctrls.bytesPerActivate::gmean   105.255697                       # Bytes accessed per row activation
system.mem_ctrls.bytesPerActivate::stdev   252.075064                       # Bytes accessed per row activation
system.mem_ctrls.bytesPerActivate::0-127         1841     63.90%     63.90% # Bytes accessed per row activation
system.mem_ctrls.bytesPerActivate::128-255          609     21.14%     85.04% # Bytes accessed per row activation
system.mem_ctrls.bytesPerActivate::256-383           90      3.12%     88.16% # Bytes accessed per row activation
system.mem_ctrls.bytesPerActivate::384-511           68      2.36%     90.52% # Bytes accessed per row activation
system.mem_ctrls.bytesPerActivate::512-639           29      1.01%     91.53% # Bytes accessed per row activation
system.mem_ctrls.bytesPerActivate::640-767           22      0.76%     92.29% # Bytes accessed per row activation
system.mem_ctrls.bytesPerActivate::768-895           34      1.18%     93.47% # Bytes accessed per row activation
system.mem_ctrls.bytesPerActivate::896-1023           18      0.62%     94.10% # Bytes accessed per row activation
system.mem_ctrls.bytesPerActivate::1024-1151          170      5.90%    100.00% # Bytes accessed per row activation
system.mem_ctrls.bytesPerActivate::total         2881                       # Bytes accessed per row activation
system.mem_ctrls.rdPerTurnAround::samples            1                       # Reads before turning the bus around for writes
system.mem_ctrls.rdPerTurnAround::mean           4288                       # Reads before turning the bus around for writes
system.mem_ctrls.rdPerTurnAround::gmean   4288.000000                       # Reads before turning the bus around for writes
system.mem_ctrls.rdPerTurnAround::stdev           nan                       # Reads before turning the bus around for writes
system.mem_ctrls.rdPerTurnAround::4096-4351            1    100.00%    100.00% # Reads before turning the bus around for writes
system.mem_ctrls.rdPerTurnAround::total             1                       # Reads before turning the bus around for writes
system.mem_ctrls.wrPerTurnAround::samples            1                       # Writes before turning the bus around for reads
system.mem_ctrls.wrPerTurnAround::mean             16                       # Writes before turning the bus around for reads
system.mem_ctrls.wrPerTurnAround::gmean     16.000000                       # Writes before turning the bus around for reads
system.mem_ctrls.wrPerTurnAround::stdev           nan                       # Writes before turning the bus around for reads
system.mem_ctrls.wrPerTurnAround::16                1    100.00%    100.00% # Writes before turning the bus around for reads
system.mem_ctrls.wrPerTurnAround::total             1                       # Writes before turning the bus around for reads
system.mem_ctrls.totQLat                     74857750                       # Total ticks spent queuing
system.mem_ctrls.totMemAccLat               221614000                       # Total ticks spent from burst creation until serviced by the DRAM
system.mem_ctrls.totBusLat                   39135000                       # Total ticks spent in databus transfers
system.mem_ctrls.avgQLat                      9564.04                       # Average queueing delay per DRAM burst
system.mem_ctrls.avgBusLat                    5000.00                       # Average bus latency per DRAM burst
system.mem_ctrls.avgMemAccLat                28314.04                       # Average memory access latency per DRAM burst
system.mem_ctrls.avgRdBW                         0.52                       # Average DRAM read bandwidth in MiByte/s
system.mem_ctrls.avgWrBW                         0.00                       # Average achieved write bandwidth in MiByte/s
system.mem_ctrls.avgRdBWSys                      0.52                       # Average system read bandwidth in MiByte/s
system.mem_ctrls.avgWrBWSys                      0.00                       # Average system write bandwidth in MiByte/s
system.mem_ctrls.peakBW                      12800.00                       # Theoretical peak bandwidth in MiByte/s
system.mem_ctrls.busUtil                         0.00                       # Data bus utilization in percentage
system.mem_ctrls.busUtilRead                     0.00                       # Data bus utilization in percentage for reads
system.mem_ctrls.busUtilWrite                    0.00                       # Data bus utilization in percentage for writes
system.mem_ctrls.avgRdQLen                       1.00                       # Average read queue length when enqueuing
system.mem_ctrls.avgWrQLen                      26.60                       # Average write queue length when enqueuing
system.mem_ctrls.readRowHits                     4949                       # Number of row buffer hits during reads
system.mem_ctrls.writeRowHits                      13                       # Number of row buffer hits during writes
system.mem_ctrls.readRowHitRate                 63.23                       # Row buffer hit rate for reads
system.mem_ctrls.writeRowHitRate                29.55                       # Row buffer hit rate for writes
system.mem_ctrls.avgGap                  122355812.89                       # Average gap between requests
system.mem_ctrls.pageHitRate                    63.04                       # Row buffer hit rate, read and write combined
system.mem_ctrls_0.actEnergy                 11778480                       # Energy for activate commands per rank (pJ)
system.mem_ctrls_0.preEnergy                  6426750                       # Energy for precharge commands per rank (pJ)
system.mem_ctrls_0.readEnergy                29905200                       # Energy for read commands per rank (pJ)
system.mem_ctrls_0.writeEnergy                  64800                       # Energy for write commands per rank (pJ)
system.mem_ctrls_0.refreshEnergy          63358947600                       # Energy for refresh commands per rank (pJ)
system.mem_ctrls_0.actBackEnergy          24168166155                       # Energy for active background per rank (pJ)
system.mem_ctrls_0.preBackEnergy         560829975750                       # Energy for precharge background per rank (pJ)
system.mem_ctrls_0.totalEnergy           648405264735                       # Total energy per rank (pJ)
system.mem_ctrls_0.averagePower            668.424441                       # Core power per rank (mW)
system.mem_ctrls_0.memoryStateTime::IDLE 932988337000                       # Time in different power states
system.mem_ctrls_0.memoryStateTime::REF   32392100000                       # Time in different power states
system.mem_ctrls_0.memoryStateTime::PRE_PDN            0                       # Time in different power states
system.mem_ctrls_0.memoryStateTime::ACT    4669779250                       # Time in different power states
system.mem_ctrls_0.memoryStateTime::ACT_PDN            0                       # Time in different power states
system.mem_ctrls_1.actEnergy                 10001880                       # Energy for activate commands per rank (pJ)
system.mem_ctrls_1.preEnergy                  5457375                       # Energy for precharge commands per rank (pJ)
system.mem_ctrls_1.readEnergy                31145400                       # Energy for read commands per rank (pJ)
system.mem_ctrls_1.writeEnergy                  38880                       # Energy for write commands per rank (pJ)
system.mem_ctrls_1.refreshEnergy          63358947600                       # Energy for refresh commands per rank (pJ)
system.mem_ctrls_1.actBackEnergy          23487591285                       # Energy for active background per rank (pJ)
system.mem_ctrls_1.preBackEnergy         561426971250                       # Energy for precharge background per rank (pJ)
system.mem_ctrls_1.totalEnergy           648320153670                       # Total energy per rank (pJ)
system.mem_ctrls_1.averagePower            668.336703                       # Core power per rank (mW)
system.mem_ctrls_1.memoryStateTime::IDLE 933988411500                       # Time in different power states
system.mem_ctrls_1.memoryStateTime::REF   32392100000                       # Time in different power states
system.mem_ctrls_1.memoryStateTime::PRE_PDN            0                       # Time in different power states
system.mem_ctrls_1.memoryStateTime::ACT    3669704750                       # Time in different power states
system.mem_ctrls_1.memoryStateTime::ACT_PDN            0                       # Time in different power states
system.cpu_voltage_domain.voltage                   1                       # Voltage in Volts
system.cpu_clk_domain.clock                       500                       # Clock period in ticks
system.cpu.apic_clk_domain.clock                 8000                       # Clock period in ticks
system.cpu.workload.num_syscalls                   35                       # Number of system calls
system.cpu.numCycles                       1940100915                       # number of cpu cycles simulated
system.cpu.numWorkItemsStarted                      0                       # number of work items this cpu started
system.cpu.numWorkItemsCompleted                    0                       # number of work items this cpu completed
system.cpu.committedInsts                   500000000                       # Number of instructions committed
system.cpu.committedOps                     644895733                       # Number of ops (including micro ops) committed
system.cpu.num_int_alu_accesses             625873233                       # Number of integer alu accesses
system.cpu.num_fp_alu_accesses               27676254                       # Number of float alu accesses
system.cpu.num_func_calls                     1531165                       # number of times a function call or return occured
system.cpu.num_conditional_control_insts     25302281                       # number of instructions that are conditional controls
system.cpu.num_int_insts                    625873233                       # number of integer instructions
system.cpu.num_fp_insts                      27676254                       # number of float instructions
system.cpu.num_int_register_reads          1467548657                       # number of times the integer registers were read
system.cpu.num_int_register_writes          569494356                       # number of times the integer registers were written
system.cpu.num_fp_register_reads             21879879                       # number of times the floating registers were read
system.cpu.num_fp_register_writes            23672685                       # number of times the floating registers were written
system.cpu.num_cc_register_reads            187332012                       # number of times the CC registers were read
system.cpu.num_cc_register_writes           260734382                       # number of times the CC registers were written
system.cpu.num_mem_refs                     254894307                       # number of memory refs
system.cpu.num_load_insts                   219204129                       # Number of load instructions
system.cpu.num_store_insts                   35690178                       # Number of store instructions
system.cpu.num_idle_cycles                          0                       # Number of idle cycles
system.cpu.num_busy_cycles                 1940100915                       # Number of busy cycles
system.cpu.not_idle_fraction                        1                       # Percentage of non-idle cycles
system.cpu.idle_fraction                            0                       # Percentage of idle cycles
system.cpu.Branches                          27605108                       # Number of branches fetched
system.cpu.op_class::No_OpClass               1502715      0.23%      0.23% # Class of executed instruction
system.cpu.op_class::IntAlu                 363720567     56.40%     56.63% # Class of executed instruction
system.cpu.op_class::IntMult                   618823      0.10%     56.73% # Class of executed instruction
system.cpu.op_class::IntDiv                   6323450      0.98%     57.71% # Class of executed instruction
system.cpu.op_class::FloatAdd                17835871      2.77%     60.48% # Class of executed instruction
system.cpu.op_class::FloatCmp                       0      0.00%     60.48% # Class of executed instruction
system.cpu.op_class::FloatCvt                       0      0.00%     60.48% # Class of executed instruction
system.cpu.op_class::FloatMult                      0      0.00%     60.48% # Class of executed instruction
system.cpu.op_class::FloatDiv                       0      0.00%     60.48% # Class of executed instruction
system.cpu.op_class::FloatSqrt                      0      0.00%     60.48% # Class of executed instruction
system.cpu.op_class::SimdAdd                        0      0.00%     60.48% # Class of executed instruction
system.cpu.op_class::SimdAddAcc                     0      0.00%     60.48% # Class of executed instruction
system.cpu.op_class::SimdAlu                        0      0.00%     60.48% # Class of executed instruction
system.cpu.op_class::SimdCmp                        0      0.00%     60.48% # Class of executed instruction
system.cpu.op_class::SimdCvt                        0      0.00%     60.48% # Class of executed instruction
system.cpu.op_class::SimdMisc                       0      0.00%     60.48% # Class of executed instruction
system.cpu.op_class::SimdMult                       0      0.00%     60.48% # Class of executed instruction
system.cpu.op_class::SimdMultAcc                    0      0.00%     60.48% # Class of executed instruction
system.cpu.op_class::SimdShift                      0      0.00%     60.48% # Class of executed instruction
system.cpu.op_class::SimdShiftAcc                   0      0.00%     60.48% # Class of executed instruction
system.cpu.op_class::SimdSqrt                       0      0.00%     60.48% # Class of executed instruction
system.cpu.op_class::SimdFloatAdd                   0      0.00%     60.48% # Class of executed instruction
system.cpu.op_class::SimdFloatAlu                   0      0.00%     60.48% # Class of executed instruction
system.cpu.op_class::SimdFloatCmp                   0      0.00%     60.48% # Class of executed instruction
system.cpu.op_class::SimdFloatCvt                   0      0.00%     60.48% # Class of executed instruction
system.cpu.op_class::SimdFloatDiv                   0      0.00%     60.48% # Class of executed instruction
system.cpu.op_class::SimdFloatMisc                  0      0.00%     60.48% # Class of executed instruction
system.cpu.op_class::SimdFloatMult                  0      0.00%     60.48% # Class of executed instruction
system.cpu.op_class::SimdFloatMultAcc               0      0.00%     60.48% # Class of executed instruction
system.cpu.op_class::SimdFloatSqrt                  0      0.00%     60.48% # Class of executed instruction
system.cpu.op_class::MemRead                219204129     33.99%     94.47% # Class of executed instruction
system.cpu.op_class::MemWrite                35690178      5.53%    100.00% # Class of executed instruction
system.cpu.op_class::IprAccess                      0      0.00%    100.00% # Class of executed instruction
system.cpu.op_class::InstPrefetch                   0      0.00%    100.00% # Class of executed instruction
system.cpu.op_class::total                  644895733                       # Class of executed instruction
system.cpu.dcache.tags.replacements           1543832                       # number of replacements
system.cpu.dcache.tags.tagsinuse           511.835979                       # Cycle average of tags in use
system.cpu.dcache.tags.total_refs           253350507                       # Total number of references to valid blocks.
system.cpu.dcache.tags.sampled_refs           1544344                       # Sample count of references to valid blocks.
system.cpu.dcache.tags.avg_refs            164.050566                       # Average number of references to valid blocks.
system.cpu.dcache.tags.warmup_cycle        2022777500                       # Cycle when the warmup percentage was hit.
system.cpu.dcache.tags.occ_blocks::cpu.data   511.835979                       # Average occupied blocks per requestor
system.cpu.dcache.tags.occ_percent::cpu.data     0.999680                       # Average percentage of cache occupancy
system.cpu.dcache.tags.occ_percent::total     0.999680                       # Average percentage of cache occupancy
system.cpu.dcache.tags.occ_task_id_blocks::1024          512                       # Occupied blocks per task id
system.cpu.dcache.tags.age_task_id_blocks_1024::0            3                       # Occupied blocks per task id
system.cpu.dcache.tags.age_task_id_blocks_1024::1           40                       # Occupied blocks per task id
system.cpu.dcache.tags.age_task_id_blocks_1024::2          282                       # Occupied blocks per task id
system.cpu.dcache.tags.age_task_id_blocks_1024::3          144                       # Occupied blocks per task id
system.cpu.dcache.tags.age_task_id_blocks_1024::4           43                       # Occupied blocks per task id
system.cpu.dcache.tags.occ_task_id_percent::1024            1                       # Percentage of cache occupancy per task id
system.cpu.dcache.tags.tag_accesses         256439195                       # Number of tag accesses
system.cpu.dcache.tags.data_accesses        256439195                       # Number of data accesses
system.cpu.dcache.ReadReq_hits::cpu.data    218206228                       # number of ReadReq hits
system.cpu.dcache.ReadReq_hits::total       218206228                       # number of ReadReq hits
system.cpu.dcache.WriteReq_hits::cpu.data     35144251                       # number of WriteReq hits
system.cpu.dcache.WriteReq_hits::total       35144251                       # number of WriteReq hits
system.cpu.dcache.SoftPFReq_hits::cpu.data           28                       # number of SoftPFReq hits
system.cpu.dcache.SoftPFReq_hits::total            28                       # number of SoftPFReq hits
system.cpu.dcache.demand_hits::cpu.data     253350479                       # number of demand (read+write) hits
system.cpu.dcache.demand_hits::total        253350479                       # number of demand (read+write) hits
system.cpu.dcache.overall_hits::cpu.data    253350507                       # number of overall hits
system.cpu.dcache.overall_hits::total       253350507                       # number of overall hits
system.cpu.dcache.ReadReq_misses::cpu.data       992282                       # number of ReadReq misses
system.cpu.dcache.ReadReq_misses::total        992282                       # number of ReadReq misses
system.cpu.dcache.WriteReq_misses::cpu.data       545972                       # number of WriteReq misses
system.cpu.dcache.WriteReq_misses::total       545972                       # number of WriteReq misses
system.cpu.dcache.SoftPFReq_misses::cpu.data         6090                       # number of SoftPFReq misses
system.cpu.dcache.SoftPFReq_misses::total         6090                       # number of SoftPFReq misses
system.cpu.dcache.demand_misses::cpu.data      1538254                       # number of demand (read+write) misses
system.cpu.dcache.demand_misses::total        1538254                       # number of demand (read+write) misses
system.cpu.dcache.overall_misses::cpu.data      1544344                       # number of overall misses
system.cpu.dcache.overall_misses::total       1544344                       # number of overall misses
system.cpu.dcache.ReadReq_miss_latency::cpu.data  12944746000                       # number of ReadReq miss cycles
system.cpu.dcache.ReadReq_miss_latency::total  12944746000                       # number of ReadReq miss cycles
system.cpu.dcache.WriteReq_miss_latency::cpu.data   7359362500                       # number of WriteReq miss cycles
system.cpu.dcache.WriteReq_miss_latency::total   7359362500                       # number of WriteReq miss cycles
system.cpu.dcache.demand_miss_latency::cpu.data  20304108500                       # number of demand (read+write) miss cycles
system.cpu.dcache.demand_miss_latency::total  20304108500                       # number of demand (read+write) miss cycles
system.cpu.dcache.overall_miss_latency::cpu.data  20304108500                       # number of overall miss cycles
system.cpu.dcache.overall_miss_latency::total  20304108500                       # number of overall miss cycles
system.cpu.dcache.ReadReq_accesses::cpu.data    219198510                       # number of ReadReq accesses(hits+misses)
system.cpu.dcache.ReadReq_accesses::total    219198510                       # number of ReadReq accesses(hits+misses)
system.cpu.dcache.WriteReq_accesses::cpu.data     35690223                       # number of WriteReq accesses(hits+misses)
system.cpu.dcache.WriteReq_accesses::total     35690223                       # number of WriteReq accesses(hits+misses)
system.cpu.dcache.SoftPFReq_accesses::cpu.data         6118                       # number of SoftPFReq accesses(hits+misses)
system.cpu.dcache.SoftPFReq_accesses::total         6118                       # number of SoftPFReq accesses(hits+misses)
system.cpu.dcache.demand_accesses::cpu.data    254888733                       # number of demand (read+write) accesses
system.cpu.dcache.demand_accesses::total    254888733                       # number of demand (read+write) accesses
system.cpu.dcache.overall_accesses::cpu.data    254894851                       # number of overall (read+write) accesses
system.cpu.dcache.overall_accesses::total    254894851                       # number of overall (read+write) accesses
system.cpu.dcache.ReadReq_miss_rate::cpu.data     0.004527                       # miss rate for ReadReq accesses
system.cpu.dcache.ReadReq_miss_rate::total     0.004527                       # miss rate for ReadReq accesses
system.cpu.dcache.WriteReq_miss_rate::cpu.data     0.015298                       # miss rate for WriteReq accesses
system.cpu.dcache.WriteReq_miss_rate::total     0.015298                       # miss rate for WriteReq accesses
system.cpu.dcache.SoftPFReq_miss_rate::cpu.data     0.995423                       # miss rate for SoftPFReq accesses
system.cpu.dcache.SoftPFReq_miss_rate::total     0.995423                       # miss rate for SoftPFReq accesses
system.cpu.dcache.demand_miss_rate::cpu.data     0.006035                       # miss rate for demand accesses
system.cpu.dcache.demand_miss_rate::total     0.006035                       # miss rate for demand accesses
system.cpu.dcache.overall_miss_rate::cpu.data     0.006059                       # miss rate for overall accesses
system.cpu.dcache.overall_miss_rate::total     0.006059                       # miss rate for overall accesses
system.cpu.dcache.ReadReq_avg_miss_latency::cpu.data 13045.430634                       # average ReadReq miss latency
system.cpu.dcache.ReadReq_avg_miss_latency::total 13045.430634                       # average ReadReq miss latency
system.cpu.dcache.WriteReq_avg_miss_latency::cpu.data 13479.377148                       # average WriteReq miss latency
system.cpu.dcache.WriteReq_avg_miss_latency::total 13479.377148                       # average WriteReq miss latency
system.cpu.dcache.demand_avg_miss_latency::cpu.data 13199.451131                       # average overall miss latency
system.cpu.dcache.demand_avg_miss_latency::total 13199.451131                       # average overall miss latency
system.cpu.dcache.overall_avg_miss_latency::cpu.data 13147.400126                       # average overall miss latency
system.cpu.dcache.overall_avg_miss_latency::total 13147.400126                       # average overall miss latency
system.cpu.dcache.blocked_cycles::no_mshrs        14893                       # number of cycles access was blocked
system.cpu.dcache.blocked_cycles::no_targets            0                       # number of cycles access was blocked
system.cpu.dcache.blocked::no_mshrs               594                       # number of cycles access was blocked
system.cpu.dcache.blocked::no_targets               0                       # number of cycles access was blocked
system.cpu.dcache.avg_blocked_cycles::no_mshrs    25.072391                       # average number of cycles each access was blocked
system.cpu.dcache.avg_blocked_cycles::no_targets          nan                       # average number of cycles each access was blocked
system.cpu.dcache.fast_writes                       0                       # number of fast writes performed
system.cpu.dcache.cache_copies                      0                       # number of cache copies performed
system.cpu.dcache.writebacks::writebacks      1536658                       # number of writebacks
system.cpu.dcache.writebacks::total           1536658                       # number of writebacks
system.cpu.dcache.ReadReq_mshr_misses::cpu.data       992282                       # number of ReadReq MSHR misses
system.cpu.dcache.ReadReq_mshr_misses::total       992282                       # number of ReadReq MSHR misses
system.cpu.dcache.WriteReq_mshr_misses::cpu.data       545972                       # number of WriteReq MSHR misses
system.cpu.dcache.WriteReq_mshr_misses::total       545972                       # number of WriteReq MSHR misses
system.cpu.dcache.SoftPFReq_mshr_misses::cpu.data         6090                       # number of SoftPFReq MSHR misses
system.cpu.dcache.SoftPFReq_mshr_misses::total         6090                       # number of SoftPFReq MSHR misses
system.cpu.dcache.demand_mshr_misses::cpu.data      1538254                       # number of demand (read+write) MSHR misses
system.cpu.dcache.demand_mshr_misses::total      1538254                       # number of demand (read+write) MSHR misses
system.cpu.dcache.overall_mshr_misses::cpu.data      1544344                       # number of overall MSHR misses
system.cpu.dcache.overall_mshr_misses::total      1544344                       # number of overall MSHR misses
system.cpu.dcache.ReadReq_mshr_miss_latency::cpu.data  11952464000                       # number of ReadReq MSHR miss cycles
system.cpu.dcache.ReadReq_mshr_miss_latency::total  11952464000                       # number of ReadReq MSHR miss cycles
system.cpu.dcache.WriteReq_mshr_miss_latency::cpu.data   6813390500                       # number of WriteReq MSHR miss cycles
system.cpu.dcache.WriteReq_mshr_miss_latency::total   6813390500                       # number of WriteReq MSHR miss cycles
system.cpu.dcache.SoftPFReq_mshr_miss_latency::cpu.data    157482498                       # number of SoftPFReq MSHR miss cycles
system.cpu.dcache.SoftPFReq_mshr_miss_latency::total    157482498                       # number of SoftPFReq MSHR miss cycles
system.cpu.dcache.demand_mshr_miss_latency::cpu.data  18765854500                       # number of demand (read+write) MSHR miss cycles
system.cpu.dcache.demand_mshr_miss_latency::total  18765854500                       # number of demand (read+write) MSHR miss cycles
system.cpu.dcache.overall_mshr_miss_latency::cpu.data  18923336998                       # number of overall MSHR miss cycles
system.cpu.dcache.overall_mshr_miss_latency::total  18923336998                       # number of overall MSHR miss cycles
system.cpu.dcache.ReadReq_mshr_miss_rate::cpu.data     0.004527                       # mshr miss rate for ReadReq accesses
system.cpu.dcache.ReadReq_mshr_miss_rate::total     0.004527                       # mshr miss rate for ReadReq accesses
system.cpu.dcache.WriteReq_mshr_miss_rate::cpu.data     0.015298                       # mshr miss rate for WriteReq accesses
system.cpu.dcache.WriteReq_mshr_miss_rate::total     0.015298                       # mshr miss rate for WriteReq accesses
system.cpu.dcache.SoftPFReq_mshr_miss_rate::cpu.data     0.995423                       # mshr miss rate for SoftPFReq accesses
system.cpu.dcache.SoftPFReq_mshr_miss_rate::total     0.995423                       # mshr miss rate for SoftPFReq accesses
system.cpu.dcache.demand_mshr_miss_rate::cpu.data     0.006035                       # mshr miss rate for demand accesses
system.cpu.dcache.demand_mshr_miss_rate::total     0.006035                       # mshr miss rate for demand accesses
system.cpu.dcache.overall_mshr_miss_rate::cpu.data     0.006059                       # mshr miss rate for overall accesses
system.cpu.dcache.overall_mshr_miss_rate::total     0.006059                       # mshr miss rate for overall accesses
system.cpu.dcache.ReadReq_avg_mshr_miss_latency::cpu.data 12045.430634                       # average ReadReq mshr miss latency
system.cpu.dcache.ReadReq_avg_mshr_miss_latency::total 12045.430634                       # average ReadReq mshr miss latency
system.cpu.dcache.WriteReq_avg_mshr_miss_latency::cpu.data 12479.377148                       # average WriteReq mshr miss latency
system.cpu.dcache.WriteReq_avg_mshr_miss_latency::total 12479.377148                       # average WriteReq mshr miss latency
system.cpu.dcache.SoftPFReq_avg_mshr_miss_latency::cpu.data 25859.195074                       # average SoftPFReq mshr miss latency
system.cpu.dcache.SoftPFReq_avg_mshr_miss_latency::total 25859.195074                       # average SoftPFReq mshr miss latency
system.cpu.dcache.demand_avg_mshr_miss_latency::cpu.data 12199.451131                       # average overall mshr miss latency
system.cpu.dcache.demand_avg_mshr_miss_latency::total 12199.451131                       # average overall mshr miss latency
system.cpu.dcache.overall_avg_mshr_miss_latency::cpu.data 12253.317265                       # average overall mshr miss latency
system.cpu.dcache.overall_avg_mshr_miss_latency::total 12253.317265                       # average overall mshr miss latency
system.cpu.dcache.no_allocate_misses                0                       # Number of misses that were no-allocate
system.cpu.dtb_walker_cache.tags.replacements            0                       # number of replacements
system.cpu.dtb_walker_cache.tags.tagsinuse            0                       # Cycle average of tags in use
system.cpu.dtb_walker_cache.tags.total_refs            0                       # Total number of references to valid blocks.
system.cpu.dtb_walker_cache.tags.sampled_refs            0                       # Sample count of references to valid blocks.
system.cpu.dtb_walker_cache.tags.avg_refs          nan                       # Average number of references to valid blocks.
system.cpu.dtb_walker_cache.tags.warmup_cycle            0                       # Cycle when the warmup percentage was hit.
system.cpu.dtb_walker_cache.tags.tag_accesses            0                       # Number of tag accesses
system.cpu.dtb_walker_cache.tags.data_accesses            0                       # Number of data accesses
system.cpu.dtb_walker_cache.blocked_cycles::no_mshrs            0                       # number of cycles access was blocked
system.cpu.dtb_walker_cache.blocked_cycles::no_targets            0                       # number of cycles access was blocked
system.cpu.dtb_walker_cache.blocked::no_mshrs            0                       # number of cycles access was blocked
system.cpu.dtb_walker_cache.blocked::no_targets            0                       # number of cycles access was blocked
system.cpu.dtb_walker_cache.avg_blocked_cycles::no_mshrs          nan                       # average number of cycles each access was blocked
system.cpu.dtb_walker_cache.avg_blocked_cycles::no_targets          nan                       # average number of cycles each access was blocked
system.cpu.dtb_walker_cache.fast_writes             0                       # number of fast writes performed
system.cpu.dtb_walker_cache.cache_copies            0                       # number of cache copies performed
system.cpu.dtb_walker_cache.no_allocate_misses            0                       # Number of misses that were no-allocate
system.cpu.icache.tags.replacements             21498                       # number of replacements
system.cpu.icache.tags.tagsinuse           496.920313                       # Cycle average of tags in use
system.cpu.icache.tags.total_refs           695956070                       # Total number of references to valid blocks.
system.cpu.icache.tags.sampled_refs             21995                       # Sample count of references to valid blocks.
system.cpu.icache.tags.avg_refs          31641.558081                       # Average number of references to valid blocks.
system.cpu.icache.tags.warmup_cycle                 0                       # Cycle when the warmup percentage was hit.
system.cpu.icache.tags.occ_blocks::cpu.inst   496.920313                       # Average occupied blocks per requestor
system.cpu.icache.tags.occ_percent::cpu.inst     0.970547                       # Average percentage of cache occupancy
system.cpu.icache.tags.occ_percent::total     0.970547                       # Average percentage of cache occupancy
system.cpu.icache.tags.occ_task_id_blocks::1024          497                       # Occupied blocks per task id
system.cpu.icache.tags.age_task_id_blocks_1024::2           21                       # Occupied blocks per task id
system.cpu.icache.tags.age_task_id_blocks_1024::3            1                       # Occupied blocks per task id
system.cpu.icache.tags.age_task_id_blocks_1024::4          475                       # Occupied blocks per task id
system.cpu.icache.tags.occ_task_id_percent::1024     0.970703                       # Percentage of cache occupancy per task id
system.cpu.icache.tags.tag_accesses         696000060                       # Number of tag accesses
system.cpu.icache.tags.data_accesses        696000060                       # Number of data accesses
system.cpu.icache.ReadReq_hits::cpu.inst    695956070                       # number of ReadReq hits
system.cpu.icache.ReadReq_hits::total       695956070                       # number of ReadReq hits
system.cpu.icache.demand_hits::cpu.inst     695956070                       # number of demand (read+write) hits
system.cpu.icache.demand_hits::total        695956070                       # number of demand (read+write) hits
system.cpu.icache.overall_hits::cpu.inst    695956070                       # number of overall hits
system.cpu.icache.overall_hits::total       695956070                       # number of overall hits
system.cpu.icache.ReadReq_misses::cpu.inst        21995                       # number of ReadReq misses
system.cpu.icache.ReadReq_misses::total         21995                       # number of ReadReq misses
system.cpu.icache.demand_misses::cpu.inst        21995                       # number of demand (read+write) misses
system.cpu.icache.demand_misses::total          21995                       # number of demand (read+write) misses
system.cpu.icache.overall_misses::cpu.inst        21995                       # number of overall misses
system.cpu.icache.overall_misses::total         21995                       # number of overall misses
system.cpu.icache.ReadReq_miss_latency::cpu.inst    427406500                       # number of ReadReq miss cycles
system.cpu.icache.ReadReq_miss_latency::total    427406500                       # number of ReadReq miss cycles
system.cpu.icache.demand_miss_latency::cpu.inst    427406500                       # number of demand (read+write) miss cycles
system.cpu.icache.demand_miss_latency::total    427406500                       # number of demand (read+write) miss cycles
system.cpu.icache.overall_miss_latency::cpu.inst    427406500                       # number of overall miss cycles
system.cpu.icache.overall_miss_latency::total    427406500                       # number of overall miss cycles
system.cpu.icache.ReadReq_accesses::cpu.inst    695978065                       # number of ReadReq accesses(hits+misses)
system.cpu.icache.ReadReq_accesses::total    695978065                       # number of ReadReq accesses(hits+misses)
system.cpu.icache.demand_accesses::cpu.inst    695978065                       # number of demand (read+write) accesses
system.cpu.icache.demand_accesses::total    695978065                       # number of demand (read+write) accesses
system.cpu.icache.overall_accesses::cpu.inst    695978065                       # number of overall (read+write) accesses
system.cpu.icache.overall_accesses::total    695978065                       # number of overall (read+write) accesses
system.cpu.icache.ReadReq_miss_rate::cpu.inst     0.000032                       # miss rate for ReadReq accesses
system.cpu.icache.ReadReq_miss_rate::total     0.000032                       # miss rate for ReadReq accesses
system.cpu.icache.demand_miss_rate::cpu.inst     0.000032                       # miss rate for demand accesses
system.cpu.icache.demand_miss_rate::total     0.000032                       # miss rate for demand accesses
system.cpu.icache.overall_miss_rate::cpu.inst     0.000032                       # miss rate for overall accesses
system.cpu.icache.overall_miss_rate::total     0.000032                       # miss rate for overall accesses
system.cpu.icache.ReadReq_avg_miss_latency::cpu.inst 19431.984542                       # average ReadReq miss latency
system.cpu.icache.ReadReq_avg_miss_latency::total 19431.984542                       # average ReadReq miss latency
system.cpu.icache.demand_avg_miss_latency::cpu.inst 19431.984542                       # average overall miss latency
system.cpu.icache.demand_avg_miss_latency::total 19431.984542                       # average overall miss latency
system.cpu.icache.overall_avg_miss_latency::cpu.inst 19431.984542                       # average overall miss latency
system.cpu.icache.overall_avg_miss_latency::total 19431.984542                       # average overall miss latency
system.cpu.icache.blocked_cycles::no_mshrs            0                       # number of cycles access was blocked
system.cpu.icache.blocked_cycles::no_targets            0                       # number of cycles access was blocked
system.cpu.icache.blocked::no_mshrs                 0                       # number of cycles access was blocked
system.cpu.icache.blocked::no_targets               0                       # number of cycles access was blocked
system.cpu.icache.avg_blocked_cycles::no_mshrs          nan                       # average number of cycles each access was blocked
system.cpu.icache.avg_blocked_cycles::no_targets          nan                       # average number of cycles each access was blocked
system.cpu.icache.fast_writes                       0                       # number of fast writes performed
system.cpu.icache.cache_copies                      0                       # number of cache copies performed
system.cpu.icache.writebacks::writebacks        21498                       # number of writebacks
system.cpu.icache.writebacks::total             21498                       # number of writebacks
system.cpu.icache.ReadReq_mshr_misses::cpu.inst        21995                       # number of ReadReq MSHR misses
system.cpu.icache.ReadReq_mshr_misses::total        21995                       # number of ReadReq MSHR misses
system.cpu.icache.demand_mshr_misses::cpu.inst        21995                       # number of demand (read+write) MSHR misses
system.cpu.icache.demand_mshr_misses::total        21995                       # number of demand (read+write) MSHR misses
system.cpu.icache.overall_mshr_misses::cpu.inst        21995                       # number of overall MSHR misses
system.cpu.icache.overall_mshr_misses::total        21995                       # number of overall MSHR misses
system.cpu.icache.ReadReq_mshr_miss_latency::cpu.inst    405411500                       # number of ReadReq MSHR miss cycles
system.cpu.icache.ReadReq_mshr_miss_latency::total    405411500                       # number of ReadReq MSHR miss cycles
system.cpu.icache.demand_mshr_miss_latency::cpu.inst    405411500                       # number of demand (read+write) MSHR miss cycles
system.cpu.icache.demand_mshr_miss_latency::total    405411500                       # number of demand (read+write) MSHR miss cycles
system.cpu.icache.overall_mshr_miss_latency::cpu.inst    405411500                       # number of overall MSHR miss cycles
system.cpu.icache.overall_mshr_miss_latency::total    405411500                       # number of overall MSHR miss cycles
system.cpu.icache.ReadReq_mshr_miss_rate::cpu.inst     0.000032                       # mshr miss rate for ReadReq accesses
system.cpu.icache.ReadReq_mshr_miss_rate::total     0.000032                       # mshr miss rate for ReadReq accesses
system.cpu.icache.demand_mshr_miss_rate::cpu.inst     0.000032                       # mshr miss rate for demand accesses
system.cpu.icache.demand_mshr_miss_rate::total     0.000032                       # mshr miss rate for demand accesses
system.cpu.icache.overall_mshr_miss_rate::cpu.inst     0.000032                       # mshr miss rate for overall accesses
system.cpu.icache.overall_mshr_miss_rate::total     0.000032                       # mshr miss rate for overall accesses
system.cpu.icache.ReadReq_avg_mshr_miss_latency::cpu.inst 18431.984542                       # average ReadReq mshr miss latency
system.cpu.icache.ReadReq_avg_mshr_miss_latency::total 18431.984542                       # average ReadReq mshr miss latency
system.cpu.icache.demand_avg_mshr_miss_latency::cpu.inst 18431.984542                       # average overall mshr miss latency
system.cpu.icache.demand_avg_mshr_miss_latency::total 18431.984542                       # average overall mshr miss latency
system.cpu.icache.overall_avg_mshr_miss_latency::cpu.inst 18431.984542                       # average overall mshr miss latency
system.cpu.icache.overall_avg_mshr_miss_latency::total 18431.984542                       # average overall mshr miss latency
system.cpu.icache.no_allocate_misses                0                       # Number of misses that were no-allocate
system.cpu.itb_walker_cache.tags.replacements            0                       # number of replacements
system.cpu.itb_walker_cache.tags.tagsinuse            0                       # Cycle average of tags in use
system.cpu.itb_walker_cache.tags.total_refs            0                       # Total number of references to valid blocks.
system.cpu.itb_walker_cache.tags.sampled_refs            0                       # Sample count of references to valid blocks.
system.cpu.itb_walker_cache.tags.avg_refs          nan                       # Average number of references to valid blocks.
system.cpu.itb_walker_cache.tags.warmup_cycle            0                       # Cycle when the warmup percentage was hit.
system.cpu.itb_walker_cache.tags.tag_accesses            0                       # Number of tag accesses
system.cpu.itb_walker_cache.tags.data_accesses            0                       # Number of data accesses
system.cpu.itb_walker_cache.blocked_cycles::no_mshrs            0                       # number of cycles access was blocked
system.cpu.itb_walker_cache.blocked_cycles::no_targets            0                       # number of cycles access was blocked
system.cpu.itb_walker_cache.blocked::no_mshrs            0                       # number of cycles access was blocked
system.cpu.itb_walker_cache.blocked::no_targets            0                       # number of cycles access was blocked
system.cpu.itb_walker_cache.avg_blocked_cycles::no_mshrs          nan                       # average number of cycles each access was blocked
system.cpu.itb_walker_cache.avg_blocked_cycles::no_targets          nan                       # average number of cycles each access was blocked
system.cpu.itb_walker_cache.fast_writes             0                       # number of fast writes performed
system.cpu.itb_walker_cache.cache_copies            0                       # number of cache copies performed
system.cpu.itb_walker_cache.no_allocate_misses            0                       # Number of misses that were no-allocate
system.l2.tags.replacements                      1661                       # number of replacements
system.l2.tags.tagsinuse                  5870.292398                       # Cycle average of tags in use
system.l2.tags.total_refs                     2471343                       # Total number of references to valid blocks.
system.l2.tags.sampled_refs                      7919                       # Sample count of references to valid blocks.
system.l2.tags.avg_refs                    312.077661                       # Average number of references to valid blocks.
system.l2.tags.warmup_cycle                         0                       # Cycle when the warmup percentage was hit.
system.l2.tags.occ_blocks::writebacks     4253.613122                       # Average occupied blocks per requestor
system.l2.tags.occ_blocks::cpu.inst       1053.077274                       # Average occupied blocks per requestor
system.l2.tags.occ_blocks::cpu.data        563.602003                       # Average occupied blocks per requestor
system.l2.tags.occ_percent::writebacks       0.259620                       # Average percentage of cache occupancy
system.l2.tags.occ_percent::cpu.inst         0.064275                       # Average percentage of cache occupancy
system.l2.tags.occ_percent::cpu.data         0.034400                       # Average percentage of cache occupancy
system.l2.tags.occ_percent::total            0.358294                       # Average percentage of cache occupancy
system.l2.tags.occ_task_id_blocks::1024          6258                       # Occupied blocks per task id
system.l2.tags.age_task_id_blocks_1024::0            1                       # Occupied blocks per task id
system.l2.tags.age_task_id_blocks_1024::1           18                       # Occupied blocks per task id
system.l2.tags.age_task_id_blocks_1024::2          331                       # Occupied blocks per task id
system.l2.tags.age_task_id_blocks_1024::3          693                       # Occupied blocks per task id
system.l2.tags.age_task_id_blocks_1024::4         5215                       # Occupied blocks per task id
system.l2.tags.occ_task_id_percent::1024     0.381958                       # Percentage of cache occupancy per task id
system.l2.tags.tag_accesses                   3685559                       # Number of tag accesses
system.l2.tags.data_accesses                  3685559                       # Number of data accesses
system.l2.WritebackDirty_hits::writebacks      1536658                       # number of WritebackDirty hits
system.l2.WritebackDirty_hits::total          1536658                       # number of WritebackDirty hits
system.l2.WritebackClean_hits::writebacks        21498                       # number of WritebackClean hits
system.l2.WritebackClean_hits::total            21498                       # number of WritebackClean hits
system.l2.ReadExReq_hits::cpu.data             542174                       # number of ReadExReq hits
system.l2.ReadExReq_hits::total                542174                       # number of ReadExReq hits
system.l2.ReadCleanReq_hits::cpu.inst           19885                       # number of ReadCleanReq hits
system.l2.ReadCleanReq_hits::total              19885                       # number of ReadCleanReq hits
system.l2.ReadSharedReq_hits::cpu.data         996419                       # number of ReadSharedReq hits
system.l2.ReadSharedReq_hits::total            996419                       # number of ReadSharedReq hits
system.l2.demand_hits::cpu.inst                 19885                       # number of demand (read+write) hits
system.l2.demand_hits::cpu.data               1538593                       # number of demand (read+write) hits
system.l2.demand_hits::total                  1558478                       # number of demand (read+write) hits
system.l2.overall_hits::cpu.inst                19885                       # number of overall hits
system.l2.overall_hits::cpu.data              1538593                       # number of overall hits
system.l2.overall_hits::total                 1558478                       # number of overall hits
system.l2.ReadExReq_misses::cpu.data             3798                       # number of ReadExReq misses
system.l2.ReadExReq_misses::total                3798                       # number of ReadExReq misses
system.l2.ReadCleanReq_misses::cpu.inst          2110                       # number of ReadCleanReq misses
system.l2.ReadCleanReq_misses::total             2110                       # number of ReadCleanReq misses
system.l2.ReadSharedReq_misses::cpu.data         1953                       # number of ReadSharedReq misses
system.l2.ReadSharedReq_misses::total            1953                       # number of ReadSharedReq misses
system.l2.demand_misses::cpu.inst                2110                       # number of demand (read+write) misses
system.l2.demand_misses::cpu.data                5751                       # number of demand (read+write) misses
system.l2.demand_misses::total                   7861                       # number of demand (read+write) misses
system.l2.overall_misses::cpu.inst               2110                       # number of overall misses
system.l2.overall_misses::cpu.data               5751                       # number of overall misses
system.l2.overall_misses::total                  7861                       # number of overall misses
system.l2.ReadExReq_miss_latency::cpu.data    300834500                       # number of ReadExReq miss cycles
system.l2.ReadExReq_miss_latency::total     300834500                       # number of ReadExReq miss cycles
system.l2.ReadCleanReq_miss_latency::cpu.inst    163339000                       # number of ReadCleanReq miss cycles
system.l2.ReadCleanReq_miss_latency::total    163339000                       # number of ReadCleanReq miss cycles
system.l2.ReadSharedReq_miss_latency::cpu.data    149802500                       # number of ReadSharedReq miss cycles
system.l2.ReadSharedReq_miss_latency::total    149802500                       # number of ReadSharedReq miss cycles
system.l2.demand_miss_latency::cpu.inst     163339000                       # number of demand (read+write) miss cycles
system.l2.demand_miss_latency::cpu.data     450637000                       # number of demand (read+write) miss cycles
system.l2.demand_miss_latency::total        613976000                       # number of demand (read+write) miss cycles
system.l2.overall_miss_latency::cpu.inst    163339000                       # number of overall miss cycles
system.l2.overall_miss_latency::cpu.data    450637000                       # number of overall miss cycles
system.l2.overall_miss_latency::total       613976000                       # number of overall miss cycles
system.l2.WritebackDirty_accesses::writebacks      1536658                       # number of WritebackDirty accesses(hits+misses)
system.l2.WritebackDirty_accesses::total      1536658                       # number of WritebackDirty accesses(hits+misses)
system.l2.WritebackClean_accesses::writebacks        21498                       # number of WritebackClean accesses(hits+misses)
system.l2.WritebackClean_accesses::total        21498                       # number of WritebackClean accesses(hits+misses)
system.l2.ReadExReq_accesses::cpu.data         545972                       # number of ReadExReq accesses(hits+misses)
system.l2.ReadExReq_accesses::total            545972                       # number of ReadExReq accesses(hits+misses)
system.l2.ReadCleanReq_accesses::cpu.inst        21995                       # number of ReadCleanReq accesses(hits+misses)
system.l2.ReadCleanReq_accesses::total          21995                       # number of ReadCleanReq accesses(hits+misses)
system.l2.ReadSharedReq_accesses::cpu.data       998372                       # number of ReadSharedReq accesses(hits+misses)
system.l2.ReadSharedReq_accesses::total        998372                       # number of ReadSharedReq accesses(hits+misses)
system.l2.demand_accesses::cpu.inst             21995                       # number of demand (read+write) accesses
system.l2.demand_accesses::cpu.data           1544344                       # number of demand (read+write) accesses
system.l2.demand_accesses::total              1566339                       # number of demand (read+write) accesses
system.l2.overall_accesses::cpu.inst            21995                       # number of overall (read+write) accesses
system.l2.overall_accesses::cpu.data          1544344                       # number of overall (read+write) accesses
system.l2.overall_accesses::total             1566339                       # number of overall (read+write) accesses
system.l2.ReadExReq_miss_rate::cpu.data      0.006956                       # miss rate for ReadExReq accesses
system.l2.ReadExReq_miss_rate::total         0.006956                       # miss rate for ReadExReq accesses
system.l2.ReadCleanReq_miss_rate::cpu.inst     0.095931                       # miss rate for ReadCleanReq accesses
system.l2.ReadCleanReq_miss_rate::total      0.095931                       # miss rate for ReadCleanReq accesses
system.l2.ReadSharedReq_miss_rate::cpu.data     0.001956                       # miss rate for ReadSharedReq accesses
system.l2.ReadSharedReq_miss_rate::total     0.001956                       # miss rate for ReadSharedReq accesses
system.l2.demand_miss_rate::cpu.inst         0.095931                       # miss rate for demand accesses
system.l2.demand_miss_rate::cpu.data         0.003724                       # miss rate for demand accesses
system.l2.demand_miss_rate::total            0.005019                       # miss rate for demand accesses
system.l2.overall_miss_rate::cpu.inst        0.095931                       # miss rate for overall accesses
system.l2.overall_miss_rate::cpu.data        0.003724                       # miss rate for overall accesses
system.l2.overall_miss_rate::total           0.005019                       # miss rate for overall accesses
system.l2.ReadExReq_avg_miss_latency::cpu.data 79208.662454                       # average ReadExReq miss latency
system.l2.ReadExReq_avg_miss_latency::total 79208.662454                       # average ReadExReq miss latency
system.l2.ReadCleanReq_avg_miss_latency::cpu.inst 77411.848341                       # average ReadCleanReq miss latency
system.l2.ReadCleanReq_avg_miss_latency::total 77411.848341                       # average ReadCleanReq miss latency
system.l2.ReadSharedReq_avg_miss_latency::cpu.data 76703.789042                       # average ReadSharedReq miss latency
system.l2.ReadSharedReq_avg_miss_latency::total 76703.789042                       # average ReadSharedReq miss latency
system.l2.demand_avg_miss_latency::cpu.inst 77411.848341                       # average overall miss latency
system.l2.demand_avg_miss_latency::cpu.data 78358.024691                       # average overall miss latency
system.l2.demand_avg_miss_latency::total 78104.058008                       # average overall miss latency
system.l2.overall_avg_miss_latency::cpu.inst 77411.848341                       # average overall miss latency
system.l2.overall_avg_miss_latency::cpu.data 78358.024691                       # average overall miss latency
system.l2.overall_avg_miss_latency::total 78104.058008                       # average overall miss latency
system.l2.blocked_cycles::no_mshrs                  0                       # number of cycles access was blocked
system.l2.blocked_cycles::no_targets                0                       # number of cycles access was blocked
system.l2.blocked::no_mshrs                         0                       # number of cycles access was blocked
system.l2.blocked::no_targets                       0                       # number of cycles access was blocked
system.l2.avg_blocked_cycles::no_mshrs            nan                       # average number of cycles each access was blocked
system.l2.avg_blocked_cycles::no_targets          nan                       # average number of cycles each access was blocked
system.l2.fast_writes                               0                       # number of fast writes performed
system.l2.cache_copies                              0                       # number of cache copies performed
system.l2.writebacks::writebacks                   62                       # number of writebacks
system.l2.writebacks::total                        62                       # number of writebacks
system.l2.CleanEvict_mshr_misses::writebacks           10                       # number of CleanEvict MSHR misses
system.l2.CleanEvict_mshr_misses::total            10                       # number of CleanEvict MSHR misses
system.l2.ReadExReq_mshr_misses::cpu.data         3798                       # number of ReadExReq MSHR misses
system.l2.ReadExReq_mshr_misses::total           3798                       # number of ReadExReq MSHR misses
system.l2.ReadCleanReq_mshr_misses::cpu.inst         2110                       # number of ReadCleanReq MSHR misses
system.l2.ReadCleanReq_mshr_misses::total         2110                       # number of ReadCleanReq MSHR misses
system.l2.ReadSharedReq_mshr_misses::cpu.data         1953                       # number of ReadSharedReq MSHR misses
system.l2.ReadSharedReq_mshr_misses::total         1953                       # number of ReadSharedReq MSHR misses
system.l2.demand_mshr_misses::cpu.inst           2110                       # number of demand (read+write) MSHR misses
system.l2.demand_mshr_misses::cpu.data           5751                       # number of demand (read+write) MSHR misses
system.l2.demand_mshr_misses::total              7861                       # number of demand (read+write) MSHR misses
system.l2.overall_mshr_misses::cpu.inst          2110                       # number of overall MSHR misses
system.l2.overall_mshr_misses::cpu.data          5751                       # number of overall MSHR misses
system.l2.overall_mshr_misses::total             7861                       # number of overall MSHR misses
system.l2.ReadExReq_mshr_miss_latency::cpu.data    262854500                       # number of ReadExReq MSHR miss cycles
system.l2.ReadExReq_mshr_miss_latency::total    262854500                       # number of ReadExReq MSHR miss cycles
system.l2.ReadCleanReq_mshr_miss_latency::cpu.inst    142239000                       # number of ReadCleanReq MSHR miss cycles
system.l2.ReadCleanReq_mshr_miss_latency::total    142239000                       # number of ReadCleanReq MSHR miss cycles
system.l2.ReadSharedReq_mshr_miss_latency::cpu.data    130272500                       # number of ReadSharedReq MSHR miss cycles
system.l2.ReadSharedReq_mshr_miss_latency::total    130272500                       # number of ReadSharedReq MSHR miss cycles
system.l2.demand_mshr_miss_latency::cpu.inst    142239000                       # number of demand (read+write) MSHR miss cycles
system.l2.demand_mshr_miss_latency::cpu.data    393127000                       # number of demand (read+write) MSHR miss cycles
system.l2.demand_mshr_miss_latency::total    535366000                       # number of demand (read+write) MSHR miss cycles
system.l2.overall_mshr_miss_latency::cpu.inst    142239000                       # number of overall MSHR miss cycles
system.l2.overall_mshr_miss_latency::cpu.data    393127000                       # number of overall MSHR miss cycles
system.l2.overall_mshr_miss_latency::total    535366000                       # number of overall MSHR miss cycles
system.l2.CleanEvict_mshr_miss_rate::writebacks          inf                       # mshr miss rate for CleanEvict accesses
system.l2.CleanEvict_mshr_miss_rate::total          inf                       # mshr miss rate for CleanEvict accesses
system.l2.ReadExReq_mshr_miss_rate::cpu.data     0.006956                       # mshr miss rate for ReadExReq accesses
system.l2.ReadExReq_mshr_miss_rate::total     0.006956                       # mshr miss rate for ReadExReq accesses
system.l2.ReadCleanReq_mshr_miss_rate::cpu.inst     0.095931                       # mshr miss rate for ReadCleanReq accesses
system.l2.ReadCleanReq_mshr_miss_rate::total     0.095931                       # mshr miss rate for ReadCleanReq accesses
system.l2.ReadSharedReq_mshr_miss_rate::cpu.data     0.001956                       # mshr miss rate for ReadSharedReq accesses
system.l2.ReadSharedReq_mshr_miss_rate::total     0.001956                       # mshr miss rate for ReadSharedReq accesses
system.l2.demand_mshr_miss_rate::cpu.inst     0.095931                       # mshr miss rate for demand accesses
system.l2.demand_mshr_miss_rate::cpu.data     0.003724                       # mshr miss rate for demand accesses
system.l2.demand_mshr_miss_rate::total       0.005019                       # mshr miss rate for demand accesses
system.l2.overall_mshr_miss_rate::cpu.inst     0.095931                       # mshr miss rate for overall accesses
system.l2.overall_mshr_miss_rate::cpu.data     0.003724                       # mshr miss rate for overall accesses
system.l2.overall_mshr_miss_rate::total      0.005019                       # mshr miss rate for overall accesses
system.l2.ReadExReq_avg_mshr_miss_latency::cpu.data 69208.662454                       # average ReadExReq mshr miss latency
system.l2.ReadExReq_avg_mshr_miss_latency::total 69208.662454                       # average ReadExReq mshr miss latency
system.l2.ReadCleanReq_avg_mshr_miss_latency::cpu.inst 67411.848341                       # average ReadCleanReq mshr miss latency
system.l2.ReadCleanReq_avg_mshr_miss_latency::total 67411.848341                       # average ReadCleanReq mshr miss latency
system.l2.ReadSharedReq_avg_mshr_miss_latency::cpu.data 66703.789042                       # average ReadSharedReq mshr miss latency
system.l2.ReadSharedReq_avg_mshr_miss_latency::total 66703.789042                       # average ReadSharedReq mshr miss latency
system.l2.demand_avg_mshr_miss_latency::cpu.inst 67411.848341                       # average overall mshr miss latency
system.l2.demand_avg_mshr_miss_latency::cpu.data 68358.024691                       # average overall mshr miss latency
system.l2.demand_avg_mshr_miss_latency::total 68104.058008                       # average overall mshr miss latency
system.l2.overall_avg_mshr_miss_latency::cpu.inst 67411.848341                       # average overall mshr miss latency
system.l2.overall_avg_mshr_miss_latency::cpu.data 68358.024691                       # average overall mshr miss latency
system.l2.overall_avg_mshr_miss_latency::total 68104.058008                       # average overall mshr miss latency
system.l2.no_allocate_misses                        0                       # Number of misses that were no-allocate
system.membus.trans_dist::ReadResp               4063                       # Transaction distribution
system.membus.trans_dist::WritebackDirty           62                       # Transaction distribution
system.membus.trans_dist::CleanEvict             1065                       # Transaction distribution
system.membus.trans_dist::ReadExReq              3798                       # Transaction distribution
system.membus.trans_dist::ReadExResp             3798                       # Transaction distribution
system.membus.trans_dist::ReadSharedReq          4063                       # Transaction distribution
system.membus.pkt_count_system.l2.mem_side::system.mem_ctrls.port        16849                       # Packet count per connected master and slave (bytes)
system.membus.pkt_count_system.l2.mem_side::total        16849                       # Packet count per connected master and slave (bytes)
system.membus.pkt_count::total                  16849                       # Packet count per connected master and slave (bytes)
system.membus.pkt_size_system.l2.mem_side::system.mem_ctrls.port       507072                       # Cumulative packet size per connected master and slave (bytes)
system.membus.pkt_size_system.l2.mem_side::total       507072                       # Cumulative packet size per connected master and slave (bytes)
system.membus.pkt_size::total                  507072                       # Cumulative packet size per connected master and slave (bytes)
system.membus.snoops                                0                       # Total snoops (count)
system.membus.snoop_fanout::samples              8988                       # Request fanout histogram
system.membus.snoop_fanout::mean                    0                       # Request fanout histogram
system.membus.snoop_fanout::stdev                   0                       # Request fanout histogram
system.membus.snoop_fanout::underflows              0      0.00%      0.00% # Request fanout histogram
system.membus.snoop_fanout::0                    8988    100.00%    100.00% # Request fanout histogram
system.membus.snoop_fanout::1                       0      0.00%    100.00% # Request fanout histogram
system.membus.snoop_fanout::overflows               0      0.00%    100.00% # Request fanout histogram
system.membus.snoop_fanout::min_value               0                       # Request fanout histogram
system.membus.snoop_fanout::max_value               0                       # Request fanout histogram
system.membus.snoop_fanout::total                8988                       # Request fanout histogram
system.membus.reqLayer2.occupancy            10250500                       # Layer occupancy (ticks)
system.membus.reqLayer2.utilization               0.0                       # Layer utilization (%)
system.membus.respLayer1.occupancy           41845250                       # Layer occupancy (ticks)
system.membus.respLayer1.utilization              0.0                       # Layer utilization (%)
system.tol2bus.snoop_filter.tot_requests      3131669                       # Total number of requests made to the snoop filter.
system.tol2bus.snoop_filter.hit_single_requests      1565330                       # Number of requests hitting in the snoop filter with a single holder of the requested data.
system.tol2bus.snoop_filter.hit_multi_requests            1                       # Number of requests hitting in the snoop filter with multiple (>1) holders of the requested data.
system.tol2bus.snoop_filter.tot_snoops            544                       # Total number of snoops made to the snoop filter.
system.tol2bus.snoop_filter.hit_single_snoops          544                       # Number of snoops hitting in the snoop filter with a single holder of the requested data.
system.tol2bus.snoop_filter.hit_multi_snoops            0                       # Number of snoops hitting in the snoop filter with multiple (>1) holders of the requested data.
system.tol2bus.trans_dist::ReadResp           1020367                       # Transaction distribution
system.tol2bus.trans_dist::WritebackDirty      1536720                       # Transaction distribution
system.tol2bus.trans_dist::WritebackClean        21498                       # Transaction distribution
system.tol2bus.trans_dist::CleanEvict            8772                       # Transaction distribution
system.tol2bus.trans_dist::ReadExReq           545972                       # Transaction distribution
system.tol2bus.trans_dist::ReadExResp          545972                       # Transaction distribution
system.tol2bus.trans_dist::ReadCleanReq         21995                       # Transaction distribution
system.tol2bus.trans_dist::ReadSharedReq       998372                       # Transaction distribution
system.tol2bus.pkt_count_system.cpu.icache.mem_side::system.l2.cpu_side        65488                       # Packet count per connected master and slave (bytes)
system.tol2bus.pkt_count_system.cpu.dcache.mem_side::system.l2.cpu_side      4632519                       # Packet count per connected master and slave (bytes)
system.tol2bus.pkt_count::total               4698007                       # Packet count per connected master and slave (bytes)
system.tol2bus.pkt_size_system.cpu.icache.mem_side::system.l2.cpu_side      2783552                       # Cumulative packet size per connected master and slave (bytes)
system.tol2bus.pkt_size_system.cpu.dcache.mem_side::system.l2.cpu_side    197184128                       # Cumulative packet size per connected master and slave (bytes)
system.tol2bus.pkt_size::total              199967680                       # Cumulative packet size per connected master and slave (bytes)
system.tol2bus.snoops                            1661                       # Total snoops (count)
system.tol2bus.snoop_fanout::samples          1568000                       # Request fanout histogram
system.tol2bus.snoop_fanout::mean            0.000348                       # Request fanout histogram
system.tol2bus.snoop_fanout::stdev           0.018640                       # Request fanout histogram
system.tol2bus.snoop_fanout::underflows             0      0.00%      0.00% # Request fanout histogram
system.tol2bus.snoop_fanout::0                1567455     99.97%     99.97% # Request fanout histogram
system.tol2bus.snoop_fanout::1                    545      0.03%    100.00% # Request fanout histogram
system.tol2bus.snoop_fanout::2                      0      0.00%    100.00% # Request fanout histogram
system.tol2bus.snoop_fanout::3                      0      0.00%    100.00% # Request fanout histogram
system.tol2bus.snoop_fanout::4                      0      0.00%    100.00% # Request fanout histogram
system.tol2bus.snoop_fanout::overflows              0      0.00%    100.00% # Request fanout histogram
system.tol2bus.snoop_fanout::min_value              0                       # Request fanout histogram
system.tol2bus.snoop_fanout::max_value              1                       # Request fanout histogram
system.tol2bus.snoop_fanout::total            1568000                       # Request fanout histogram
system.tol2bus.reqLayer0.occupancy         3123990500                       # Layer occupancy (ticks)
system.tol2bus.reqLayer0.utilization              0.3                       # Layer utilization (%)
system.tol2bus.respLayer0.occupancy          32992500                       # Layer occupancy (ticks)
system.tol2bus.respLayer0.utilization             0.0                       # Layer utilization (%)
system.tol2bus.respLayer1.occupancy        2316516000                       # Layer occupancy (ticks)
system.tol2bus.respLayer1.utilization             0.2                       # Layer utilization (%)

---------- End Simulation Statistics   ----------
