
---------- Begin Simulation Statistics ---------
sim_seconds                                  1.388676                       # Number of seconds simulated
sim_ticks                                1388675875500                       # Number of ticks simulated
final_tick                               1388675875500                       # Number of ticks from beginning of simulation (restored from checkpoints and never reset)
sim_freq                                 1000000000000                       # Frequency of simulated ticks
host_inst_rate                                 628854                       # Simulator instruction rate (inst/s)
host_op_rate                                   916790                       # Simulator op (including micro ops) rate (op/s)
host_tick_rate                             1746547668                       # Simulator tick rate (ticks/s)
host_mem_usage                                 835392                       # Number of bytes of host memory used
host_seconds                                   795.10                       # Real time elapsed on the host
sim_insts                                   500000001                       # Number of instructions simulated
sim_ops                                     728937824                       # Number of ops (including micro ops) simulated
system.voltage_domain.voltage                       1                       # Voltage in Volts
system.clk_domain.clock                          1000                       # Clock period in ticks
system.mem_ctrls.bytes_read::cpu.inst           58880                       # Number of bytes read from this memory
system.mem_ctrls.bytes_read::cpu.data       156558432                       # Number of bytes read from this memory
system.mem_ctrls.bytes_read::total          156617312                       # Number of bytes read from this memory
system.mem_ctrls.bytes_inst_read::cpu.inst        58880                       # Number of instructions bytes read from this memory
system.mem_ctrls.bytes_inst_read::total         58880                       # Number of instructions bytes read from this memory
system.mem_ctrls.bytes_written::writebacks     80255424                       # Number of bytes written to this memory
system.mem_ctrls.bytes_written::total        80255424                       # Number of bytes written to this memory
system.mem_ctrls.num_reads::cpu.inst             1840                       # Number of read requests responded to by this memory
system.mem_ctrls.num_reads::cpu.data          4892451                       # Number of read requests responded to by this memory
system.mem_ctrls.num_reads::total             4894291                       # Number of read requests responded to by this memory
system.mem_ctrls.num_writes::writebacks       2507982                       # Number of write requests responded to by this memory
system.mem_ctrls.num_writes::total            2507982                       # Number of write requests responded to by this memory
system.mem_ctrls.bw_read::cpu.inst              42400                       # Total read bandwidth from this memory (bytes/s)
system.mem_ctrls.bw_read::cpu.data          112739362                       # Total read bandwidth from this memory (bytes/s)
system.mem_ctrls.bw_read::total             112781762                       # Total read bandwidth from this memory (bytes/s)
system.mem_ctrls.bw_inst_read::cpu.inst         42400                       # Instruction read bandwidth from this memory (bytes/s)
system.mem_ctrls.bw_inst_read::total            42400                       # Instruction read bandwidth from this memory (bytes/s)
system.mem_ctrls.bw_write::writebacks        57792769                       # Write bandwidth from this memory (bytes/s)
system.mem_ctrls.bw_write::total             57792769                       # Write bandwidth from this memory (bytes/s)
system.mem_ctrls.bw_total::writebacks        57792769                       # Total bandwidth to/from this memory (bytes/s)
system.mem_ctrls.bw_total::cpu.inst             42400                       # Total bandwidth to/from this memory (bytes/s)
system.mem_ctrls.bw_total::cpu.data         112739362                       # Total bandwidth to/from this memory (bytes/s)
system.mem_ctrls.bw_total::total            170574531                       # Total bandwidth to/from this memory (bytes/s)
system.mem_ctrls.readReqs                     4894291                       # Number of read requests accepted
system.mem_ctrls.writeReqs                    2507982                       # Number of write requests accepted
system.mem_ctrls.readBursts                   4894291                       # Number of DRAM read bursts, including those serviced by the write queue
system.mem_ctrls.writeBursts                  2507982                       # Number of DRAM write bursts, including those merged in the write queue
system.mem_ctrls.bytesReadDRAM              313145280                       # Total number of bytes read from DRAM
system.mem_ctrls.bytesReadWrQ                   89344                       # Total number of bytes read from write queue
system.mem_ctrls.bytesWritten                99415744                       # Total number of bytes written to DRAM
system.mem_ctrls.bytesReadSys               156617312                       # Total read bytes from the system interface side
system.mem_ctrls.bytesWrittenSys             80255424                       # Total written bytes from the system interface side
system.mem_ctrls.servicedByWrQ                   1396                       # Number of DRAM read bursts serviced by the write queue
system.mem_ctrls.mergedWrBursts                954596                       # Number of DRAM write bursts merged with an existing one
system.mem_ctrls.neitherReadNorWriteReqs      2352594                       # Number of requests that are neither read nor write
system.mem_ctrls.perBankRdBursts::0            308089                       # Per bank write bursts
system.mem_ctrls.perBankRdBursts::1            306393                       # Per bank write bursts
system.mem_ctrls.perBankRdBursts::2            306906                       # Per bank write bursts
system.mem_ctrls.perBankRdBursts::3            303470                       # Per bank write bursts
system.mem_ctrls.perBankRdBursts::4            303176                       # Per bank write bursts
system.mem_ctrls.perBankRdBursts::5            303177                       # Per bank write bursts
system.mem_ctrls.perBankRdBursts::6            306149                       # Per bank write bursts
system.mem_ctrls.perBankRdBursts::7            304465                       # Per bank write bursts
system.mem_ctrls.perBankRdBursts::8            301887                       # Per bank write bursts
system.mem_ctrls.perBankRdBursts::9            301702                       # Per bank write bursts
system.mem_ctrls.perBankRdBursts::10           305285                       # Per bank write bursts
system.mem_ctrls.perBankRdBursts::11           305946                       # Per bank write bursts
system.mem_ctrls.perBankRdBursts::12           309276                       # Per bank write bursts
system.mem_ctrls.perBankRdBursts::13           308091                       # Per bank write bursts
system.mem_ctrls.perBankRdBursts::14           308515                       # Per bank write bursts
system.mem_ctrls.perBankRdBursts::15           310368                       # Per bank write bursts
system.mem_ctrls.perBankWrBursts::0             98176                       # Per bank write bursts
system.mem_ctrls.perBankWrBursts::1             97609                       # Per bank write bursts
system.mem_ctrls.perBankWrBursts::2             98903                       # Per bank write bursts
system.mem_ctrls.perBankWrBursts::3             96437                       # Per bank write bursts
system.mem_ctrls.perBankWrBursts::4             95924                       # Per bank write bursts
system.mem_ctrls.perBankWrBursts::5             95213                       # Per bank write bursts
system.mem_ctrls.perBankWrBursts::6             96957                       # Per bank write bursts
system.mem_ctrls.perBankWrBursts::7             96442                       # Per bank write bursts
system.mem_ctrls.perBankWrBursts::8             95580                       # Per bank write bursts
system.mem_ctrls.perBankWrBursts::9             95638                       # Per bank write bursts
system.mem_ctrls.perBankWrBursts::10            96816                       # Per bank write bursts
system.mem_ctrls.perBankWrBursts::11            96634                       # Per bank write bursts
system.mem_ctrls.perBankWrBursts::12            97607                       # Per bank write bursts
system.mem_ctrls.perBankWrBursts::13            97673                       # Per bank write bursts
system.mem_ctrls.perBankWrBursts::14            98222                       # Per bank write bursts
system.mem_ctrls.perBankWrBursts::15            99540                       # Per bank write bursts
system.mem_ctrls.numRdRetry                         0                       # Number of times read queue was full causing retry
system.mem_ctrls.numWrRetry                         0                       # Number of times write queue was full causing retry
system.mem_ctrls.totGap                  1387546897500                       # Total gap between requests
system.mem_ctrls.readPktSize::0                     0                       # Read request sizes (log2)
system.mem_ctrls.readPktSize::1                     0                       # Read request sizes (log2)
system.mem_ctrls.readPktSize::2                     0                       # Read request sizes (log2)
system.mem_ctrls.readPktSize::3                     0                       # Read request sizes (log2)
system.mem_ctrls.readPktSize::4                     0                       # Read request sizes (log2)
system.mem_ctrls.readPktSize::5               4894291                       # Read request sizes (log2)
system.mem_ctrls.readPktSize::6                     0                       # Read request sizes (log2)
system.mem_ctrls.writePktSize::0                    0                       # Write request sizes (log2)
system.mem_ctrls.writePktSize::1                    0                       # Write request sizes (log2)
system.mem_ctrls.writePktSize::2                    0                       # Write request sizes (log2)
system.mem_ctrls.writePktSize::3                    0                       # Write request sizes (log2)
system.mem_ctrls.writePktSize::4                    0                       # Write request sizes (log2)
system.mem_ctrls.writePktSize::5              2507982                       # Write request sizes (log2)
system.mem_ctrls.writePktSize::6                    0                       # Write request sizes (log2)
system.mem_ctrls.rdQLenPdf::0                 4827357                       # What read queue length does an incoming req see
system.mem_ctrls.rdQLenPdf::1                   32769                       # What read queue length does an incoming req see
system.mem_ctrls.rdQLenPdf::2                   32769                       # What read queue length does an incoming req see
system.mem_ctrls.rdQLenPdf::3                       0                       # What read queue length does an incoming req see
system.mem_ctrls.rdQLenPdf::4                       0                       # What read queue length does an incoming req see
system.mem_ctrls.rdQLenPdf::5                       0                       # What read queue length does an incoming req see
system.mem_ctrls.rdQLenPdf::6                       0                       # What read queue length does an incoming req see
system.mem_ctrls.rdQLenPdf::7                       0                       # What read queue length does an incoming req see
system.mem_ctrls.rdQLenPdf::8                       0                       # What read queue length does an incoming req see
system.mem_ctrls.rdQLenPdf::9                       0                       # What read queue length does an incoming req see
system.mem_ctrls.rdQLenPdf::10                      0                       # What read queue length does an incoming req see
system.mem_ctrls.rdQLenPdf::11                      0                       # What read queue length does an incoming req see
system.mem_ctrls.rdQLenPdf::12                      0                       # What read queue length does an incoming req see
system.mem_ctrls.rdQLenPdf::13                      0                       # What read queue length does an incoming req see
system.mem_ctrls.rdQLenPdf::14                      0                       # What read queue length does an incoming req see
system.mem_ctrls.rdQLenPdf::15                      0                       # What read queue length does an incoming req see
system.mem_ctrls.rdQLenPdf::16                      0                       # What read queue length does an incoming req see
system.mem_ctrls.rdQLenPdf::17                      0                       # What read queue length does an incoming req see
system.mem_ctrls.rdQLenPdf::18                      0                       # What read queue length does an incoming req see
system.mem_ctrls.rdQLenPdf::19                      0                       # What read queue length does an incoming req see
system.mem_ctrls.rdQLenPdf::20                      0                       # What read queue length does an incoming req see
system.mem_ctrls.rdQLenPdf::21                      0                       # What read queue length does an incoming req see
system.mem_ctrls.rdQLenPdf::22                      0                       # What read queue length does an incoming req see
system.mem_ctrls.rdQLenPdf::23                      0                       # What read queue length does an incoming req see
system.mem_ctrls.rdQLenPdf::24                      0                       # What read queue length does an incoming req see
system.mem_ctrls.rdQLenPdf::25                      0                       # What read queue length does an incoming req see
system.mem_ctrls.rdQLenPdf::26                      0                       # What read queue length does an incoming req see
system.mem_ctrls.rdQLenPdf::27                      0                       # What read queue length does an incoming req see
system.mem_ctrls.rdQLenPdf::28                      0                       # What read queue length does an incoming req see
system.mem_ctrls.rdQLenPdf::29                      0                       # What read queue length does an incoming req see
system.mem_ctrls.rdQLenPdf::30                      0                       # What read queue length does an incoming req see
system.mem_ctrls.rdQLenPdf::31                      0                       # What read queue length does an incoming req see
system.mem_ctrls.wrQLenPdf::0                       1                       # What write queue length does an incoming req see
system.mem_ctrls.wrQLenPdf::1                       1                       # What write queue length does an incoming req see
system.mem_ctrls.wrQLenPdf::2                       1                       # What write queue length does an incoming req see
system.mem_ctrls.wrQLenPdf::3                       1                       # What write queue length does an incoming req see
system.mem_ctrls.wrQLenPdf::4                       1                       # What write queue length does an incoming req see
system.mem_ctrls.wrQLenPdf::5                       1                       # What write queue length does an incoming req see
system.mem_ctrls.wrQLenPdf::6                       1                       # What write queue length does an incoming req see
system.mem_ctrls.wrQLenPdf::7                       1                       # What write queue length does an incoming req see
system.mem_ctrls.wrQLenPdf::8                       1                       # What write queue length does an incoming req see
system.mem_ctrls.wrQLenPdf::9                       1                       # What write queue length does an incoming req see
system.mem_ctrls.wrQLenPdf::10                      1                       # What write queue length does an incoming req see
system.mem_ctrls.wrQLenPdf::11                      1                       # What write queue length does an incoming req see
system.mem_ctrls.wrQLenPdf::12                      1                       # What write queue length does an incoming req see
system.mem_ctrls.wrQLenPdf::13                      1                       # What write queue length does an incoming req see
system.mem_ctrls.wrQLenPdf::14                      1                       # What write queue length does an incoming req see
system.mem_ctrls.wrQLenPdf::15                  18266                       # What write queue length does an incoming req see
system.mem_ctrls.wrQLenPdf::16                  19458                       # What write queue length does an incoming req see
system.mem_ctrls.wrQLenPdf::17                  93003                       # What write queue length does an incoming req see
system.mem_ctrls.wrQLenPdf::18                  94529                       # What write queue length does an incoming req see
system.mem_ctrls.wrQLenPdf::19                  94727                       # What write queue length does an incoming req see
system.mem_ctrls.wrQLenPdf::20                  94719                       # What write queue length does an incoming req see
system.mem_ctrls.wrQLenPdf::21                  94717                       # What write queue length does an incoming req see
system.mem_ctrls.wrQLenPdf::22                  94717                       # What write queue length does an incoming req see
system.mem_ctrls.wrQLenPdf::23                  94718                       # What write queue length does an incoming req see
system.mem_ctrls.wrQLenPdf::24                  94716                       # What write queue length does an incoming req see
system.mem_ctrls.wrQLenPdf::25                  94728                       # What write queue length does an incoming req see
system.mem_ctrls.wrQLenPdf::26                  94737                       # What write queue length does an incoming req see
system.mem_ctrls.wrQLenPdf::27                  94746                       # What write queue length does an incoming req see
system.mem_ctrls.wrQLenPdf::28                  95406                       # What write queue length does an incoming req see
system.mem_ctrls.wrQLenPdf::29                  95222                       # What write queue length does an incoming req see
system.mem_ctrls.wrQLenPdf::30                  94722                       # What write queue length does an incoming req see
system.mem_ctrls.wrQLenPdf::31                  95485                       # What write queue length does an incoming req see
system.mem_ctrls.wrQLenPdf::32                  94735                       # What write queue length does an incoming req see
system.mem_ctrls.wrQLenPdf::33                     18                       # What write queue length does an incoming req see
system.mem_ctrls.wrQLenPdf::34                      2                       # What write queue length does an incoming req see
system.mem_ctrls.wrQLenPdf::35                      0                       # What write queue length does an incoming req see
system.mem_ctrls.wrQLenPdf::36                      0                       # What write queue length does an incoming req see
system.mem_ctrls.wrQLenPdf::37                      0                       # What write queue length does an incoming req see
system.mem_ctrls.wrQLenPdf::38                      0                       # What write queue length does an incoming req see
system.mem_ctrls.wrQLenPdf::39                      0                       # What write queue length does an incoming req see
system.mem_ctrls.wrQLenPdf::40                      0                       # What write queue length does an incoming req see
system.mem_ctrls.wrQLenPdf::41                      0                       # What write queue length does an incoming req see
system.mem_ctrls.wrQLenPdf::42                      0                       # What write queue length does an incoming req see
system.mem_ctrls.wrQLenPdf::43                      0                       # What write queue length does an incoming req see
system.mem_ctrls.wrQLenPdf::44                      0                       # What write queue length does an incoming req see
system.mem_ctrls.wrQLenPdf::45                      0                       # What write queue length does an incoming req see
system.mem_ctrls.wrQLenPdf::46                      0                       # What write queue length does an incoming req see
system.mem_ctrls.wrQLenPdf::47                      0                       # What write queue length does an incoming req see
system.mem_ctrls.wrQLenPdf::48                      0                       # What write queue length does an incoming req see
system.mem_ctrls.wrQLenPdf::49                      0                       # What write queue length does an incoming req see
system.mem_ctrls.wrQLenPdf::50                      0                       # What write queue length does an incoming req see
system.mem_ctrls.wrQLenPdf::51                      0                       # What write queue length does an incoming req see
system.mem_ctrls.wrQLenPdf::52                      0                       # What write queue length does an incoming req see
system.mem_ctrls.wrQLenPdf::53                      0                       # What write queue length does an incoming req see
system.mem_ctrls.wrQLenPdf::54                      0                       # What write queue length does an incoming req see
system.mem_ctrls.wrQLenPdf::55                      0                       # What write queue length does an incoming req see
system.mem_ctrls.wrQLenPdf::56                      0                       # What write queue length does an incoming req see
system.mem_ctrls.wrQLenPdf::57                      0                       # What write queue length does an incoming req see
system.mem_ctrls.wrQLenPdf::58                      0                       # What write queue length does an incoming req see
system.mem_ctrls.wrQLenPdf::59                      0                       # What write queue length does an incoming req see
system.mem_ctrls.wrQLenPdf::60                      0                       # What write queue length does an incoming req see
system.mem_ctrls.wrQLenPdf::61                      0                       # What write queue length does an incoming req see
system.mem_ctrls.wrQLenPdf::62                      0                       # What write queue length does an incoming req see
system.mem_ctrls.wrQLenPdf::63                      0                       # What write queue length does an incoming req see
system.mem_ctrls.bytesPerActivate::samples      1162695                       # Bytes accessed per row activation
system.mem_ctrls.bytesPerActivate::mean    354.831683                       # Bytes accessed per row activation
system.mem_ctrls.bytesPerActivate::gmean   185.702487                       # Bytes accessed per row activation
system.mem_ctrls.bytesPerActivate::stdev   381.379097                       # Bytes accessed per row activation
system.mem_ctrls.bytesPerActivate::0-127       530113     45.59%     45.59% # Bytes accessed per row activation
system.mem_ctrls.bytesPerActivate::128-255       175853     15.12%     60.72% # Bytes accessed per row activation
system.mem_ctrls.bytesPerActivate::256-383        56482      4.86%     65.58% # Bytes accessed per row activation
system.mem_ctrls.bytesPerActivate::384-511        32005      2.75%     68.33% # Bytes accessed per row activation
system.mem_ctrls.bytesPerActivate::512-639        70679      6.08%     74.41% # Bytes accessed per row activation
system.mem_ctrls.bytesPerActivate::640-767        15890      1.37%     75.77% # Bytes accessed per row activation
system.mem_ctrls.bytesPerActivate::768-895        39052      3.36%     79.13% # Bytes accessed per row activation
system.mem_ctrls.bytesPerActivate::896-1023        28954      2.49%     81.62% # Bytes accessed per row activation
system.mem_ctrls.bytesPerActivate::1024-1151       213667     18.38%    100.00% # Bytes accessed per row activation
system.mem_ctrls.bytesPerActivate::total      1162695                       # Bytes accessed per row activation
system.mem_ctrls.rdPerTurnAround::samples        94713                       # Reads before turning the bus around for writes
system.mem_ctrls.rdPerTurnAround::mean      51.659096                       # Reads before turning the bus around for writes
system.mem_ctrls.rdPerTurnAround::gmean     42.843254                       # Reads before turning the bus around for writes
system.mem_ctrls.rdPerTurnAround::stdev    167.689280                       # Reads before turning the bus around for writes
system.mem_ctrls.rdPerTurnAround::0-2047        94700     99.99%     99.99% # Reads before turning the bus around for writes
system.mem_ctrls.rdPerTurnAround::2048-4095            5      0.01%     99.99% # Reads before turning the bus around for writes
system.mem_ctrls.rdPerTurnAround::4096-6143            2      0.00%     99.99% # Reads before turning the bus around for writes
system.mem_ctrls.rdPerTurnAround::6144-8191            1      0.00%     99.99% # Reads before turning the bus around for writes
system.mem_ctrls.rdPerTurnAround::8192-10239            1      0.00%    100.00% # Reads before turning the bus around for writes
system.mem_ctrls.rdPerTurnAround::12288-14335            1      0.00%    100.00% # Reads before turning the bus around for writes
system.mem_ctrls.rdPerTurnAround::20480-22527            1      0.00%    100.00% # Reads before turning the bus around for writes
system.mem_ctrls.rdPerTurnAround::22528-24575            1      0.00%    100.00% # Reads before turning the bus around for writes
system.mem_ctrls.rdPerTurnAround::32768-34815            1      0.00%    100.00% # Reads before turning the bus around for writes
system.mem_ctrls.rdPerTurnAround::total         94713                       # Reads before turning the bus around for writes
system.mem_ctrls.wrPerTurnAround::samples        94713                       # Writes before turning the bus around for reads
system.mem_ctrls.wrPerTurnAround::mean      16.400821                       # Writes before turning the bus around for reads
system.mem_ctrls.wrPerTurnAround::gmean     16.382332                       # Writes before turning the bus around for reads
system.mem_ctrls.wrPerTurnAround::stdev      0.797481                       # Writes before turning the bus around for reads
system.mem_ctrls.wrPerTurnAround::16            75250     79.45%     79.45% # Writes before turning the bus around for reads
system.mem_ctrls.wrPerTurnAround::17             1192      1.26%     80.71% # Writes before turning the bus around for reads
system.mem_ctrls.wrPerTurnAround::18            18056     19.06%     99.77% # Writes before turning the bus around for reads
system.mem_ctrls.wrPerTurnAround::19              202      0.21%     99.99% # Writes before turning the bus around for reads
system.mem_ctrls.wrPerTurnAround::20               12      0.01%    100.00% # Writes before turning the bus around for reads
system.mem_ctrls.wrPerTurnAround::21                1      0.00%    100.00% # Writes before turning the bus around for reads
system.mem_ctrls.wrPerTurnAround::total         94713                       # Writes before turning the bus around for reads
system.mem_ctrls.totQLat                  35278264500                       # Total ticks spent queuing
system.mem_ctrls.totMemAccLat            127020045750                       # Total ticks spent from burst creation until serviced by the DRAM
system.mem_ctrls.totBusLat                24464475000                       # Total ticks spent in databus transfers
system.mem_ctrls.avgQLat                      7210.10                       # Average queueing delay per DRAM burst
system.mem_ctrls.avgBusLat                    5000.00                       # Average bus latency per DRAM burst
system.mem_ctrls.avgMemAccLat                25960.10                       # Average memory access latency per DRAM burst
system.mem_ctrls.avgRdBW                       225.50                       # Average DRAM read bandwidth in MiByte/s
system.mem_ctrls.avgWrBW                        71.59                       # Average achieved write bandwidth in MiByte/s
system.mem_ctrls.avgRdBWSys                    112.78                       # Average system read bandwidth in MiByte/s
system.mem_ctrls.avgWrBWSys                     57.79                       # Average system write bandwidth in MiByte/s
system.mem_ctrls.peakBW                      12800.00                       # Theoretical peak bandwidth in MiByte/s
system.mem_ctrls.busUtil                         2.32                       # Data bus utilization in percentage
system.mem_ctrls.busUtilRead                     1.76                       # Data bus utilization in percentage for reads
system.mem_ctrls.busUtilWrite                    0.56                       # Data bus utilization in percentage for writes
system.mem_ctrls.avgRdQLen                       1.00                       # Average read queue length when enqueuing
system.mem_ctrls.avgWrQLen                      24.35                       # Average write queue length when enqueuing
system.mem_ctrls.readRowHits                  4061374                       # Number of row buffer hits during reads
system.mem_ctrls.writeRowHits                 1222197                       # Number of row buffer hits during writes
system.mem_ctrls.readRowHitRate                 83.01                       # Row buffer hit rate for reads
system.mem_ctrls.writeRowHitRate                78.68                       # Row buffer hit rate for writes
system.mem_ctrls.avgGap                     187448.76                       # Average gap between requests
system.mem_ctrls.pageHitRate                    81.96                       # Row buffer hit rate, read and write combined
system.mem_ctrls_0.actEnergy               4356759960                       # Energy for activate commands per rank (pJ)
system.mem_ctrls_0.preEnergy               2377200375                       # Energy for precharge commands per rank (pJ)
system.mem_ctrls_0.readEnergy             19046235000                       # Energy for read commands per rank (pJ)
system.mem_ctrls_0.writeEnergy             5026283280                       # Energy for write commands per rank (pJ)
system.mem_ctrls_0.refreshEnergy          90701167440                       # Energy for refresh commands per rank (pJ)
system.mem_ctrls_0.actBackEnergy         446105825145                       # Energy for active background per rank (pJ)
system.mem_ctrls_0.preBackEnergy         441881189250                       # Energy for precharge background per rank (pJ)
system.mem_ctrls_0.totalEnergy           1009494660450                       # Total energy per rank (pJ)
system.mem_ctrls_0.averagePower            726.950646                       # Core power per rank (mW)
system.mem_ctrls_0.memoryStateTime::IDLE 731636477750                       # Time in different power states
system.mem_ctrls_0.memoryStateTime::REF   46370740000                       # Time in different power states
system.mem_ctrls_0.memoryStateTime::PRE_PDN            0                       # Time in different power states
system.mem_ctrls_0.memoryStateTime::ACT  610662943500                       # Time in different power states
system.mem_ctrls_0.memoryStateTime::ACT_PDN            0                       # Time in different power states
system.mem_ctrls_1.actEnergy               4433214240                       # Energy for activate commands per rank (pJ)
system.mem_ctrls_1.preEnergy               2418916500                       # Energy for precharge commands per rank (pJ)
system.mem_ctrls_1.readEnergy             19118346000                       # Energy for read commands per rank (pJ)
system.mem_ctrls_1.writeEnergy             5039560800                       # Energy for write commands per rank (pJ)
system.mem_ctrls_1.refreshEnergy          90701167440                       # Energy for refresh commands per rank (pJ)
system.mem_ctrls_1.actBackEnergy         448541846685                       # Energy for active background per rank (pJ)
system.mem_ctrls_1.preBackEnergy         439744328250                       # Energy for precharge background per rank (pJ)
system.mem_ctrls_1.totalEnergy           1009997379915                       # Total energy per rank (pJ)
system.mem_ctrls_1.averagePower            727.312661                       # Core power per rank (mW)
system.mem_ctrls_1.memoryStateTime::IDLE 728042908000                       # Time in different power states
system.mem_ctrls_1.memoryStateTime::REF   46370740000                       # Time in different power states
system.mem_ctrls_1.memoryStateTime::PRE_PDN            0                       # Time in different power states
system.mem_ctrls_1.memoryStateTime::ACT  614256513250                       # Time in different power states
system.mem_ctrls_1.memoryStateTime::ACT_PDN            0                       # Time in different power states
system.cpu_voltage_domain.voltage                   1                       # Voltage in Volts
system.cpu_clk_domain.clock                       500                       # Clock period in ticks
system.cpu.apic_clk_domain.clock                 8000                       # Clock period in ticks
system.cpu.workload.num_syscalls                   89                       # Number of system calls
system.cpu.numCycles                       2777351751                       # number of cpu cycles simulated
system.cpu.numWorkItemsStarted                      0                       # number of work items this cpu started
system.cpu.numWorkItemsCompleted                    0                       # number of work items this cpu completed
system.cpu.committedInsts                   500000001                       # Number of instructions committed
system.cpu.committedOps                     728937824                       # Number of ops (including micro ops) committed
system.cpu.num_int_alu_accesses             727310589                       # Number of integer alu accesses
system.cpu.num_fp_alu_accesses                    843                       # Number of float alu accesses
system.cpu.num_func_calls                     1427761                       # number of times a function call or return occured
system.cpu.num_conditional_control_insts     32105501                       # number of instructions that are conditional controls
system.cpu.num_int_insts                    727310589                       # number of integer instructions
system.cpu.num_fp_insts                           843                       # number of float instructions
system.cpu.num_int_register_reads          1714991297                       # number of times the integer registers were read
system.cpu.num_int_register_writes          612733141                       # number of times the integer registers were written
system.cpu.num_fp_register_reads                 1319                       # number of times the floating registers were read
system.cpu.num_fp_register_writes                 577                       # number of times the floating registers were written
system.cpu.num_cc_register_reads            181720629                       # number of times the CC registers were read
system.cpu.num_cc_register_writes           264518979                       # number of times the CC registers were written
system.cpu.num_mem_refs                     304821783                       # number of memory refs
system.cpu.num_load_insts                   228115222                       # Number of load instructions
system.cpu.num_store_insts                   76706561                       # Number of store instructions
system.cpu.num_idle_cycles                          0                       # Number of idle cycles
system.cpu.num_busy_cycles                 2777351751                       # Number of busy cycles
system.cpu.not_idle_fraction                        1                       # Percentage of non-idle cycles
system.cpu.idle_fraction                            0                       # Percentage of idle cycles
system.cpu.Branches                          38073397                       # Number of branches fetched
system.cpu.op_class::No_OpClass                960306      0.13%      0.13% # Class of executed instruction
system.cpu.op_class::IntAlu                 423024114     58.03%     58.16% # Class of executed instruction
system.cpu.op_class::IntMult                   130951      0.02%     58.18% # Class of executed instruction
system.cpu.op_class::IntDiv                       140      0.00%     58.18% # Class of executed instruction
system.cpu.op_class::FloatAdd                     530      0.00%     58.18% # Class of executed instruction
system.cpu.op_class::FloatCmp                       0      0.00%     58.18% # Class of executed instruction
system.cpu.op_class::FloatCvt                       0      0.00%     58.18% # Class of executed instruction
system.cpu.op_class::FloatMult                      0      0.00%     58.18% # Class of executed instruction
system.cpu.op_class::FloatDiv                       0      0.00%     58.18% # Class of executed instruction
system.cpu.op_class::FloatSqrt                      0      0.00%     58.18% # Class of executed instruction
system.cpu.op_class::SimdAdd                        0      0.00%     58.18% # Class of executed instruction
system.cpu.op_class::SimdAddAcc                     0      0.00%     58.18% # Class of executed instruction
system.cpu.op_class::SimdAlu                        0      0.00%     58.18% # Class of executed instruction
system.cpu.op_class::SimdCmp                        0      0.00%     58.18% # Class of executed instruction
system.cpu.op_class::SimdCvt                        0      0.00%     58.18% # Class of executed instruction
system.cpu.op_class::SimdMisc                       0      0.00%     58.18% # Class of executed instruction
system.cpu.op_class::SimdMult                       0      0.00%     58.18% # Class of executed instruction
system.cpu.op_class::SimdMultAcc                    0      0.00%     58.18% # Class of executed instruction
system.cpu.op_class::SimdShift                      0      0.00%     58.18% # Class of executed instruction
system.cpu.op_class::SimdShiftAcc                   0      0.00%     58.18% # Class of executed instruction
system.cpu.op_class::SimdSqrt                       0      0.00%     58.18% # Class of executed instruction
system.cpu.op_class::SimdFloatAdd                   0      0.00%     58.18% # Class of executed instruction
system.cpu.op_class::SimdFloatAlu                   0      0.00%     58.18% # Class of executed instruction
system.cpu.op_class::SimdFloatCmp                   0      0.00%     58.18% # Class of executed instruction
system.cpu.op_class::SimdFloatCvt                   0      0.00%     58.18% # Class of executed instruction
system.cpu.op_class::SimdFloatDiv                   0      0.00%     58.18% # Class of executed instruction
system.cpu.op_class::SimdFloatMisc                  0      0.00%     58.18% # Class of executed instruction
system.cpu.op_class::SimdFloatMult                  0      0.00%     58.18% # Class of executed instruction
system.cpu.op_class::SimdFloatMultAcc               0      0.00%     58.18% # Class of executed instruction
system.cpu.op_class::SimdFloatSqrt                  0      0.00%     58.18% # Class of executed instruction
system.cpu.op_class::MemRead                228115222     31.29%     89.48% # Class of executed instruction
system.cpu.op_class::MemWrite                76706561     10.52%    100.00% # Class of executed instruction
system.cpu.op_class::IprAccess                      0      0.00%    100.00% # Class of executed instruction
system.cpu.op_class::InstPrefetch                   0      0.00%    100.00% # Class of executed instruction
system.cpu.op_class::total                  728937824                       # Class of executed instruction
system.cpu.dcache.tags.replacements           6801482                       # number of replacements
system.cpu.dcache.tags.tagsinuse          1012.949347                       # Cycle average of tags in use
system.cpu.dcache.tags.total_refs           298019291                       # Total number of references to valid blocks.
system.cpu.dcache.tags.sampled_refs           6802506                       # Sample count of references to valid blocks.
system.cpu.dcache.tags.avg_refs             43.810221                       # Average number of references to valid blocks.
system.cpu.dcache.tags.warmup_cycle       21751749500                       # Cycle when the warmup percentage was hit.
system.cpu.dcache.tags.occ_blocks::cpu.data  1012.949347                       # Average occupied blocks per requestor
system.cpu.dcache.tags.occ_percent::cpu.data     0.989208                       # Average percentage of cache occupancy
system.cpu.dcache.tags.occ_percent::total     0.989208                       # Average percentage of cache occupancy
system.cpu.dcache.tags.occ_task_id_blocks::1024         1024                       # Occupied blocks per task id
system.cpu.dcache.tags.age_task_id_blocks_1024::0            5                       # Occupied blocks per task id
system.cpu.dcache.tags.age_task_id_blocks_1024::1           54                       # Occupied blocks per task id
system.cpu.dcache.tags.age_task_id_blocks_1024::2          510                       # Occupied blocks per task id
system.cpu.dcache.tags.age_task_id_blocks_1024::3          278                       # Occupied blocks per task id
system.cpu.dcache.tags.age_task_id_blocks_1024::4          177                       # Occupied blocks per task id
system.cpu.dcache.tags.occ_task_id_percent::1024            1                       # Percentage of cache occupancy per task id
system.cpu.dcache.tags.tag_accesses        1226089694                       # Number of tag accesses
system.cpu.dcache.tags.data_accesses       1226089694                       # Number of data accesses
system.cpu.dcache.ReadReq_hits::cpu.data    224017976                       # number of ReadReq hits
system.cpu.dcache.ReadReq_hits::total       224017976                       # number of ReadReq hits
system.cpu.dcache.WriteReq_hits::cpu.data     74001315                       # number of WriteReq hits
system.cpu.dcache.WriteReq_hits::total       74001315                       # number of WriteReq hits
system.cpu.dcache.demand_hits::cpu.data     298019291                       # number of demand (read+write) hits
system.cpu.dcache.demand_hits::total        298019291                       # number of demand (read+write) hits
system.cpu.dcache.overall_hits::cpu.data    298019291                       # number of overall hits
system.cpu.dcache.overall_hits::total       298019291                       # number of overall hits
system.cpu.dcache.ReadReq_misses::cpu.data      4031723                       # number of ReadReq misses
system.cpu.dcache.ReadReq_misses::total       4031723                       # number of ReadReq misses
system.cpu.dcache.WriteReq_misses::cpu.data      2705247                       # number of WriteReq misses
system.cpu.dcache.WriteReq_misses::total      2705247                       # number of WriteReq misses
system.cpu.dcache.SoftPFReq_misses::cpu.data        65536                       # number of SoftPFReq misses
system.cpu.dcache.SoftPFReq_misses::total        65536                       # number of SoftPFReq misses
system.cpu.dcache.demand_misses::cpu.data      6736970                       # number of demand (read+write) misses
system.cpu.dcache.demand_misses::total        6736970                       # number of demand (read+write) misses
system.cpu.dcache.overall_misses::cpu.data      6802506                       # number of overall misses
system.cpu.dcache.overall_misses::total       6802506                       # number of overall misses
system.cpu.dcache.ReadReq_miss_latency::cpu.data 209674363500                       # number of ReadReq miss cycles
system.cpu.dcache.ReadReq_miss_latency::total 209674363500                       # number of ReadReq miss cycles
system.cpu.dcache.WriteReq_miss_latency::cpu.data 192954394500                       # number of WriteReq miss cycles
system.cpu.dcache.WriteReq_miss_latency::total 192954394500                       # number of WriteReq miss cycles
system.cpu.dcache.demand_miss_latency::cpu.data 402628758000                       # number of demand (read+write) miss cycles
system.cpu.dcache.demand_miss_latency::total 402628758000                       # number of demand (read+write) miss cycles
system.cpu.dcache.overall_miss_latency::cpu.data 402628758000                       # number of overall miss cycles
system.cpu.dcache.overall_miss_latency::total 402628758000                       # number of overall miss cycles
system.cpu.dcache.ReadReq_accesses::cpu.data    228049699                       # number of ReadReq accesses(hits+misses)
system.cpu.dcache.ReadReq_accesses::total    228049699                       # number of ReadReq accesses(hits+misses)
system.cpu.dcache.WriteReq_accesses::cpu.data     76706562                       # number of WriteReq accesses(hits+misses)
system.cpu.dcache.WriteReq_accesses::total     76706562                       # number of WriteReq accesses(hits+misses)
system.cpu.dcache.SoftPFReq_accesses::cpu.data        65536                       # number of SoftPFReq accesses(hits+misses)
system.cpu.dcache.SoftPFReq_accesses::total        65536                       # number of SoftPFReq accesses(hits+misses)
system.cpu.dcache.demand_accesses::cpu.data    304756261                       # number of demand (read+write) accesses
system.cpu.dcache.demand_accesses::total    304756261                       # number of demand (read+write) accesses
system.cpu.dcache.overall_accesses::cpu.data    304821797                       # number of overall (read+write) accesses
system.cpu.dcache.overall_accesses::total    304821797                       # number of overall (read+write) accesses
system.cpu.dcache.ReadReq_miss_rate::cpu.data     0.017679                       # miss rate for ReadReq accesses
system.cpu.dcache.ReadReq_miss_rate::total     0.017679                       # miss rate for ReadReq accesses
system.cpu.dcache.WriteReq_miss_rate::cpu.data     0.035267                       # miss rate for WriteReq accesses
system.cpu.dcache.WriteReq_miss_rate::total     0.035267                       # miss rate for WriteReq accesses
system.cpu.dcache.SoftPFReq_miss_rate::cpu.data            1                       # miss rate for SoftPFReq accesses
system.cpu.dcache.SoftPFReq_miss_rate::total            1                       # miss rate for SoftPFReq accesses
system.cpu.dcache.demand_miss_rate::cpu.data     0.022106                       # miss rate for demand accesses
system.cpu.dcache.demand_miss_rate::total     0.022106                       # miss rate for demand accesses
system.cpu.dcache.overall_miss_rate::cpu.data     0.022316                       # miss rate for overall accesses
system.cpu.dcache.overall_miss_rate::total     0.022316                       # miss rate for overall accesses
system.cpu.dcache.ReadReq_avg_miss_latency::cpu.data 52006.143155                       # average ReadReq miss latency
system.cpu.dcache.ReadReq_avg_miss_latency::total 52006.143155                       # average ReadReq miss latency
system.cpu.dcache.WriteReq_avg_miss_latency::cpu.data 71325.980400                       # average WriteReq miss latency
system.cpu.dcache.WriteReq_avg_miss_latency::total 71325.980400                       # average WriteReq miss latency
system.cpu.dcache.demand_avg_miss_latency::cpu.data 59764.071682                       # average overall miss latency
system.cpu.dcache.demand_avg_miss_latency::total 59764.071682                       # average overall miss latency
system.cpu.dcache.overall_avg_miss_latency::cpu.data 59188.298842                       # average overall miss latency
system.cpu.dcache.overall_avg_miss_latency::total 59188.298842                       # average overall miss latency
system.cpu.dcache.blocked_cycles::no_mshrs            0                       # number of cycles access was blocked
system.cpu.dcache.blocked_cycles::no_targets            0                       # number of cycles access was blocked
system.cpu.dcache.blocked::no_mshrs                 0                       # number of cycles access was blocked
system.cpu.dcache.blocked::no_targets               0                       # number of cycles access was blocked
system.cpu.dcache.avg_blocked_cycles::no_mshrs          nan                       # average number of cycles each access was blocked
system.cpu.dcache.avg_blocked_cycles::no_targets          nan                       # average number of cycles each access was blocked
system.cpu.dcache.fast_writes                       0                       # number of fast writes performed
system.cpu.dcache.cache_copies                      0                       # number of cache copies performed
system.cpu.dcache.writebacks::writebacks      3320332                       # number of writebacks
system.cpu.dcache.writebacks::total           3320332                       # number of writebacks
system.cpu.dcache.ReadReq_mshr_misses::cpu.data      4031723                       # number of ReadReq MSHR misses
system.cpu.dcache.ReadReq_mshr_misses::total      4031723                       # number of ReadReq MSHR misses
system.cpu.dcache.WriteReq_mshr_misses::cpu.data      2705247                       # number of WriteReq MSHR misses
system.cpu.dcache.WriteReq_mshr_misses::total      2705247                       # number of WriteReq MSHR misses
system.cpu.dcache.SoftPFReq_mshr_misses::cpu.data        65536                       # number of SoftPFReq MSHR misses
system.cpu.dcache.SoftPFReq_mshr_misses::total        65536                       # number of SoftPFReq MSHR misses
system.cpu.dcache.demand_mshr_misses::cpu.data      6736970                       # number of demand (read+write) MSHR misses
system.cpu.dcache.demand_mshr_misses::total      6736970                       # number of demand (read+write) MSHR misses
system.cpu.dcache.overall_mshr_misses::cpu.data      6802506                       # number of overall MSHR misses
system.cpu.dcache.overall_mshr_misses::total      6802506                       # number of overall MSHR misses
system.cpu.dcache.ReadReq_mshr_miss_latency::cpu.data 205642640500                       # number of ReadReq MSHR miss cycles
system.cpu.dcache.ReadReq_mshr_miss_latency::total 205642640500                       # number of ReadReq MSHR miss cycles
system.cpu.dcache.WriteReq_mshr_miss_latency::cpu.data 190249147500                       # number of WriteReq MSHR miss cycles
system.cpu.dcache.WriteReq_mshr_miss_latency::total 190249147500                       # number of WriteReq MSHR miss cycles
system.cpu.dcache.SoftPFReq_mshr_miss_latency::cpu.data   4970575000                       # number of SoftPFReq MSHR miss cycles
system.cpu.dcache.SoftPFReq_mshr_miss_latency::total   4970575000                       # number of SoftPFReq MSHR miss cycles
system.cpu.dcache.demand_mshr_miss_latency::cpu.data 395891788000                       # number of demand (read+write) MSHR miss cycles
system.cpu.dcache.demand_mshr_miss_latency::total 395891788000                       # number of demand (read+write) MSHR miss cycles
system.cpu.dcache.overall_mshr_miss_latency::cpu.data 400862363000                       # number of overall MSHR miss cycles
system.cpu.dcache.overall_mshr_miss_latency::total 400862363000                       # number of overall MSHR miss cycles
system.cpu.dcache.ReadReq_mshr_miss_rate::cpu.data     0.017679                       # mshr miss rate for ReadReq accesses
system.cpu.dcache.ReadReq_mshr_miss_rate::total     0.017679                       # mshr miss rate for ReadReq accesses
system.cpu.dcache.WriteReq_mshr_miss_rate::cpu.data     0.035267                       # mshr miss rate for WriteReq accesses
system.cpu.dcache.WriteReq_mshr_miss_rate::total     0.035267                       # mshr miss rate for WriteReq accesses
system.cpu.dcache.SoftPFReq_mshr_miss_rate::cpu.data            1                       # mshr miss rate for SoftPFReq accesses
system.cpu.dcache.SoftPFReq_mshr_miss_rate::total            1                       # mshr miss rate for SoftPFReq accesses
system.cpu.dcache.demand_mshr_miss_rate::cpu.data     0.022106                       # mshr miss rate for demand accesses
system.cpu.dcache.demand_mshr_miss_rate::total     0.022106                       # mshr miss rate for demand accesses
system.cpu.dcache.overall_mshr_miss_rate::cpu.data     0.022316                       # mshr miss rate for overall accesses
system.cpu.dcache.overall_mshr_miss_rate::total     0.022316                       # mshr miss rate for overall accesses
system.cpu.dcache.ReadReq_avg_mshr_miss_latency::cpu.data 51006.143155                       # average ReadReq mshr miss latency
system.cpu.dcache.ReadReq_avg_mshr_miss_latency::total 51006.143155                       # average ReadReq mshr miss latency
system.cpu.dcache.WriteReq_avg_mshr_miss_latency::cpu.data 70325.980400                       # average WriteReq mshr miss latency
system.cpu.dcache.WriteReq_avg_mshr_miss_latency::total 70325.980400                       # average WriteReq mshr miss latency
system.cpu.dcache.SoftPFReq_avg_mshr_miss_latency::cpu.data 75844.955444                       # average SoftPFReq mshr miss latency
system.cpu.dcache.SoftPFReq_avg_mshr_miss_latency::total 75844.955444                       # average SoftPFReq mshr miss latency
system.cpu.dcache.demand_avg_mshr_miss_latency::cpu.data 58764.071682                       # average overall mshr miss latency
system.cpu.dcache.demand_avg_mshr_miss_latency::total 58764.071682                       # average overall mshr miss latency
system.cpu.dcache.overall_avg_mshr_miss_latency::cpu.data 58928.630566                       # average overall mshr miss latency
system.cpu.dcache.overall_avg_mshr_miss_latency::total 58928.630566                       # average overall mshr miss latency
system.cpu.dcache.no_allocate_misses                0                       # Number of misses that were no-allocate
system.cpu.dtb_walker_cache.tags.replacements            0                       # number of replacements
system.cpu.dtb_walker_cache.tags.tagsinuse            0                       # Cycle average of tags in use
system.cpu.dtb_walker_cache.tags.total_refs            0                       # Total number of references to valid blocks.
system.cpu.dtb_walker_cache.tags.sampled_refs            0                       # Sample count of references to valid blocks.
system.cpu.dtb_walker_cache.tags.avg_refs          nan                       # Average number of references to valid blocks.
system.cpu.dtb_walker_cache.tags.warmup_cycle            0                       # Cycle when the warmup percentage was hit.
system.cpu.dtb_walker_cache.tags.tag_accesses            0                       # Number of tag accesses
system.cpu.dtb_walker_cache.tags.data_accesses            0                       # Number of data accesses
system.cpu.dtb_walker_cache.blocked_cycles::no_mshrs            0                       # number of cycles access was blocked
system.cpu.dtb_walker_cache.blocked_cycles::no_targets            0                       # number of cycles access was blocked
system.cpu.dtb_walker_cache.blocked::no_mshrs            0                       # number of cycles access was blocked
system.cpu.dtb_walker_cache.blocked::no_targets            0                       # number of cycles access was blocked
system.cpu.dtb_walker_cache.avg_blocked_cycles::no_mshrs          nan                       # average number of cycles each access was blocked
system.cpu.dtb_walker_cache.avg_blocked_cycles::no_targets          nan                       # average number of cycles each access was blocked
system.cpu.dtb_walker_cache.fast_writes             0                       # number of fast writes performed
system.cpu.dtb_walker_cache.cache_copies            0                       # number of cache copies performed
system.cpu.dtb_walker_cache.no_allocate_misses            0                       # Number of misses that were no-allocate
system.cpu.icache.tags.replacements              1189                       # number of replacements
system.cpu.icache.tags.tagsinuse           695.251852                       # Cycle average of tags in use
system.cpu.icache.tags.total_refs           687816731                       # Total number of references to valid blocks.
system.cpu.icache.tags.sampled_refs              2074                       # Sample count of references to valid blocks.
system.cpu.icache.tags.avg_refs          331637.768081                       # Average number of references to valid blocks.
system.cpu.icache.tags.warmup_cycle                 0                       # Cycle when the warmup percentage was hit.
system.cpu.icache.tags.occ_blocks::cpu.inst   695.251852                       # Average occupied blocks per requestor
system.cpu.icache.tags.occ_percent::cpu.inst     0.678957                       # Average percentage of cache occupancy
system.cpu.icache.tags.occ_percent::total     0.678957                       # Average percentage of cache occupancy
system.cpu.icache.tags.occ_task_id_blocks::1024          885                       # Occupied blocks per task id
system.cpu.icache.tags.age_task_id_blocks_1024::3            5                       # Occupied blocks per task id
system.cpu.icache.tags.age_task_id_blocks_1024::4          880                       # Occupied blocks per task id
system.cpu.icache.tags.occ_task_id_percent::1024     0.864258                       # Percentage of cache occupancy per task id
system.cpu.icache.tags.tag_accesses         687820879                       # Number of tag accesses
system.cpu.icache.tags.data_accesses        687820879                       # Number of data accesses
system.cpu.icache.ReadReq_hits::cpu.inst    687816731                       # number of ReadReq hits
system.cpu.icache.ReadReq_hits::total       687816731                       # number of ReadReq hits
system.cpu.icache.demand_hits::cpu.inst     687816731                       # number of demand (read+write) hits
system.cpu.icache.demand_hits::total        687816731                       # number of demand (read+write) hits
system.cpu.icache.overall_hits::cpu.inst    687816731                       # number of overall hits
system.cpu.icache.overall_hits::total       687816731                       # number of overall hits
system.cpu.icache.ReadReq_misses::cpu.inst         2074                       # number of ReadReq misses
system.cpu.icache.ReadReq_misses::total          2074                       # number of ReadReq misses
system.cpu.icache.demand_misses::cpu.inst         2074                       # number of demand (read+write) misses
system.cpu.icache.demand_misses::total           2074                       # number of demand (read+write) misses
system.cpu.icache.overall_misses::cpu.inst         2074                       # number of overall misses
system.cpu.icache.overall_misses::total          2074                       # number of overall misses
system.cpu.icache.ReadReq_miss_latency::cpu.inst    145573000                       # number of ReadReq miss cycles
system.cpu.icache.ReadReq_miss_latency::total    145573000                       # number of ReadReq miss cycles
system.cpu.icache.demand_miss_latency::cpu.inst    145573000                       # number of demand (read+write) miss cycles
system.cpu.icache.demand_miss_latency::total    145573000                       # number of demand (read+write) miss cycles
system.cpu.icache.overall_miss_latency::cpu.inst    145573000                       # number of overall miss cycles
system.cpu.icache.overall_miss_latency::total    145573000                       # number of overall miss cycles
system.cpu.icache.ReadReq_accesses::cpu.inst    687818805                       # number of ReadReq accesses(hits+misses)
system.cpu.icache.ReadReq_accesses::total    687818805                       # number of ReadReq accesses(hits+misses)
system.cpu.icache.demand_accesses::cpu.inst    687818805                       # number of demand (read+write) accesses
system.cpu.icache.demand_accesses::total    687818805                       # number of demand (read+write) accesses
system.cpu.icache.overall_accesses::cpu.inst    687818805                       # number of overall (read+write) accesses
system.cpu.icache.overall_accesses::total    687818805                       # number of overall (read+write) accesses
system.cpu.icache.ReadReq_miss_rate::cpu.inst     0.000003                       # miss rate for ReadReq accesses
system.cpu.icache.ReadReq_miss_rate::total     0.000003                       # miss rate for ReadReq accesses
system.cpu.icache.demand_miss_rate::cpu.inst     0.000003                       # miss rate for demand accesses
system.cpu.icache.demand_miss_rate::total     0.000003                       # miss rate for demand accesses
system.cpu.icache.overall_miss_rate::cpu.inst     0.000003                       # miss rate for overall accesses
system.cpu.icache.overall_miss_rate::total     0.000003                       # miss rate for overall accesses
system.cpu.icache.ReadReq_avg_miss_latency::cpu.inst 70189.488910                       # average ReadReq miss latency
system.cpu.icache.ReadReq_avg_miss_latency::total 70189.488910                       # average ReadReq miss latency
system.cpu.icache.demand_avg_miss_latency::cpu.inst 70189.488910                       # average overall miss latency
system.cpu.icache.demand_avg_miss_latency::total 70189.488910                       # average overall miss latency
system.cpu.icache.overall_avg_miss_latency::cpu.inst 70189.488910                       # average overall miss latency
system.cpu.icache.overall_avg_miss_latency::total 70189.488910                       # average overall miss latency
system.cpu.icache.blocked_cycles::no_mshrs            0                       # number of cycles access was blocked
system.cpu.icache.blocked_cycles::no_targets            0                       # number of cycles access was blocked
system.cpu.icache.blocked::no_mshrs                 0                       # number of cycles access was blocked
system.cpu.icache.blocked::no_targets               0                       # number of cycles access was blocked
system.cpu.icache.avg_blocked_cycles::no_mshrs          nan                       # average number of cycles each access was blocked
system.cpu.icache.avg_blocked_cycles::no_targets          nan                       # average number of cycles each access was blocked
system.cpu.icache.fast_writes                       0                       # number of fast writes performed
system.cpu.icache.cache_copies                      0                       # number of cache copies performed
system.cpu.icache.writebacks::writebacks         1189                       # number of writebacks
system.cpu.icache.writebacks::total              1189                       # number of writebacks
system.cpu.icache.ReadReq_mshr_misses::cpu.inst         2074                       # number of ReadReq MSHR misses
system.cpu.icache.ReadReq_mshr_misses::total         2074                       # number of ReadReq MSHR misses
system.cpu.icache.demand_mshr_misses::cpu.inst         2074                       # number of demand (read+write) MSHR misses
system.cpu.icache.demand_mshr_misses::total         2074                       # number of demand (read+write) MSHR misses
system.cpu.icache.overall_mshr_misses::cpu.inst         2074                       # number of overall MSHR misses
system.cpu.icache.overall_mshr_misses::total         2074                       # number of overall MSHR misses
system.cpu.icache.ReadReq_mshr_miss_latency::cpu.inst    143499000                       # number of ReadReq MSHR miss cycles
system.cpu.icache.ReadReq_mshr_miss_latency::total    143499000                       # number of ReadReq MSHR miss cycles
system.cpu.icache.demand_mshr_miss_latency::cpu.inst    143499000                       # number of demand (read+write) MSHR miss cycles
system.cpu.icache.demand_mshr_miss_latency::total    143499000                       # number of demand (read+write) MSHR miss cycles
system.cpu.icache.overall_mshr_miss_latency::cpu.inst    143499000                       # number of overall MSHR miss cycles
system.cpu.icache.overall_mshr_miss_latency::total    143499000                       # number of overall MSHR miss cycles
system.cpu.icache.ReadReq_mshr_miss_rate::cpu.inst     0.000003                       # mshr miss rate for ReadReq accesses
system.cpu.icache.ReadReq_mshr_miss_rate::total     0.000003                       # mshr miss rate for ReadReq accesses
system.cpu.icache.demand_mshr_miss_rate::cpu.inst     0.000003                       # mshr miss rate for demand accesses
system.cpu.icache.demand_mshr_miss_rate::total     0.000003                       # mshr miss rate for demand accesses
system.cpu.icache.overall_mshr_miss_rate::cpu.inst     0.000003                       # mshr miss rate for overall accesses
system.cpu.icache.overall_mshr_miss_rate::total     0.000003                       # mshr miss rate for overall accesses
system.cpu.icache.ReadReq_avg_mshr_miss_latency::cpu.inst 69189.488910                       # average ReadReq mshr miss latency
system.cpu.icache.ReadReq_avg_mshr_miss_latency::total 69189.488910                       # average ReadReq mshr miss latency
system.cpu.icache.demand_avg_mshr_miss_latency::cpu.inst 69189.488910                       # average overall mshr miss latency
system.cpu.icache.demand_avg_mshr_miss_latency::total 69189.488910                       # average overall mshr miss latency
system.cpu.icache.overall_avg_mshr_miss_latency::cpu.inst 69189.488910                       # average overall mshr miss latency
system.cpu.icache.overall_avg_mshr_miss_latency::total 69189.488910                       # average overall mshr miss latency
system.cpu.icache.no_allocate_misses                0                       # Number of misses that were no-allocate
system.cpu.itb_walker_cache.tags.replacements            0                       # number of replacements
system.cpu.itb_walker_cache.tags.tagsinuse            0                       # Cycle average of tags in use
system.cpu.itb_walker_cache.tags.total_refs            0                       # Total number of references to valid blocks.
system.cpu.itb_walker_cache.tags.sampled_refs            0                       # Sample count of references to valid blocks.
system.cpu.itb_walker_cache.tags.avg_refs          nan                       # Average number of references to valid blocks.
system.cpu.itb_walker_cache.tags.warmup_cycle            0                       # Cycle when the warmup percentage was hit.
system.cpu.itb_walker_cache.tags.tag_accesses            0                       # Number of tag accesses
system.cpu.itb_walker_cache.tags.data_accesses            0                       # Number of data accesses
system.cpu.itb_walker_cache.blocked_cycles::no_mshrs            0                       # number of cycles access was blocked
system.cpu.itb_walker_cache.blocked_cycles::no_targets            0                       # number of cycles access was blocked
system.cpu.itb_walker_cache.blocked::no_mshrs            0                       # number of cycles access was blocked
system.cpu.itb_walker_cache.blocked::no_targets            0                       # number of cycles access was blocked
system.cpu.itb_walker_cache.avg_blocked_cycles::no_mshrs          nan                       # average number of cycles each access was blocked
system.cpu.itb_walker_cache.avg_blocked_cycles::no_targets          nan                       # average number of cycles each access was blocked
system.cpu.itb_walker_cache.fast_writes             0                       # number of fast writes performed
system.cpu.itb_walker_cache.cache_copies            0                       # number of cache copies performed
system.cpu.itb_walker_cache.no_allocate_misses            0                       # Number of misses that were no-allocate
system.l2.tags.replacements                   4870808                       # number of replacements
system.l2.tags.tagsinuse                 31936.259894                       # Cycle average of tags in use
system.l2.tags.total_refs                     5940126                       # Total number of references to valid blocks.
system.l2.tags.sampled_refs                   4903514                       # Sample count of references to valid blocks.
system.l2.tags.avg_refs                      1.211402                       # Average number of references to valid blocks.
system.l2.tags.warmup_cycle              467244108500                       # Cycle when the warmup percentage was hit.
system.l2.tags.occ_blocks::writebacks    15813.111528                       # Average occupied blocks per requestor
system.l2.tags.occ_blocks::cpu.inst         13.238382                       # Average occupied blocks per requestor
system.l2.tags.occ_blocks::cpu.data      16109.909984                       # Average occupied blocks per requestor
system.l2.tags.occ_percent::writebacks       0.482578                       # Average percentage of cache occupancy
system.l2.tags.occ_percent::cpu.inst         0.000404                       # Average percentage of cache occupancy
system.l2.tags.occ_percent::cpu.data         0.491635                       # Average percentage of cache occupancy
system.l2.tags.occ_percent::total            0.974617                       # Average percentage of cache occupancy
system.l2.tags.occ_task_id_blocks::1024         32706                       # Occupied blocks per task id
system.l2.tags.age_task_id_blocks_1024::0            1                       # Occupied blocks per task id
system.l2.tags.age_task_id_blocks_1024::1            1                       # Occupied blocks per task id
system.l2.tags.age_task_id_blocks_1024::2           88                       # Occupied blocks per task id
system.l2.tags.age_task_id_blocks_1024::3          172                       # Occupied blocks per task id
system.l2.tags.age_task_id_blocks_1024::4        32444                       # Occupied blocks per task id
system.l2.tags.occ_task_id_percent::1024     0.998108                       # Percentage of cache occupancy per task id
system.l2.tags.tag_accesses                  21216011                       # Number of tag accesses
system.l2.tags.data_accesses                 21216011                       # Number of data accesses
system.l2.WritebackDirty_hits::writebacks      3320332                       # number of WritebackDirty hits
system.l2.WritebackDirty_hits::total          3320332                       # number of WritebackDirty hits
system.l2.WritebackClean_hits::writebacks         1189                       # number of WritebackClean hits
system.l2.WritebackClean_hits::total             1189                       # number of WritebackClean hits
system.l2.ReadExReq_hits::cpu.data             327079                       # number of ReadExReq hits
system.l2.ReadExReq_hits::total                327079                       # number of ReadExReq hits
system.l2.ReadCleanReq_hits::cpu.inst             234                       # number of ReadCleanReq hits
system.l2.ReadCleanReq_hits::total                234                       # number of ReadCleanReq hits
system.l2.ReadSharedReq_hits::cpu.data        1582976                       # number of ReadSharedReq hits
system.l2.ReadSharedReq_hits::total           1582976                       # number of ReadSharedReq hits
system.l2.demand_hits::cpu.inst                   234                       # number of demand (read+write) hits
system.l2.demand_hits::cpu.data               1910055                       # number of demand (read+write) hits
system.l2.demand_hits::total                  1910289                       # number of demand (read+write) hits
system.l2.overall_hits::cpu.inst                  234                       # number of overall hits
system.l2.overall_hits::cpu.data              1910055                       # number of overall hits
system.l2.overall_hits::total                 1910289                       # number of overall hits
system.l2.ReadExReq_misses::cpu.data          2378168                       # number of ReadExReq misses
system.l2.ReadExReq_misses::total             2378168                       # number of ReadExReq misses
system.l2.ReadCleanReq_misses::cpu.inst          1840                       # number of ReadCleanReq misses
system.l2.ReadCleanReq_misses::total             1840                       # number of ReadCleanReq misses
system.l2.ReadSharedReq_misses::cpu.data      2514283                       # number of ReadSharedReq misses
system.l2.ReadSharedReq_misses::total         2514283                       # number of ReadSharedReq misses
system.l2.demand_misses::cpu.inst                1840                       # number of demand (read+write) misses
system.l2.demand_misses::cpu.data             4892451                       # number of demand (read+write) misses
system.l2.demand_misses::total                4894291                       # number of demand (read+write) misses
system.l2.overall_misses::cpu.inst               1840                       # number of overall misses
system.l2.overall_misses::cpu.data            4892451                       # number of overall misses
system.l2.overall_misses::total               4894291                       # number of overall misses
system.l2.ReadExReq_miss_latency::cpu.data 182756947500                       # number of ReadExReq miss cycles
system.l2.ReadExReq_miss_latency::total  182756947500                       # number of ReadExReq miss cycles
system.l2.ReadCleanReq_miss_latency::cpu.inst    137930000                       # number of ReadCleanReq miss cycles
system.l2.ReadCleanReq_miss_latency::total    137930000                       # number of ReadCleanReq miss cycles
system.l2.ReadSharedReq_miss_latency::cpu.data 187846079000                       # number of ReadSharedReq miss cycles
system.l2.ReadSharedReq_miss_latency::total 187846079000                       # number of ReadSharedReq miss cycles
system.l2.demand_miss_latency::cpu.inst     137930000                       # number of demand (read+write) miss cycles
system.l2.demand_miss_latency::cpu.data  370603026500                       # number of demand (read+write) miss cycles
system.l2.demand_miss_latency::total     370740956500                       # number of demand (read+write) miss cycles
system.l2.overall_miss_latency::cpu.inst    137930000                       # number of overall miss cycles
system.l2.overall_miss_latency::cpu.data 370603026500                       # number of overall miss cycles
system.l2.overall_miss_latency::total    370740956500                       # number of overall miss cycles
system.l2.WritebackDirty_accesses::writebacks      3320332                       # number of WritebackDirty accesses(hits+misses)
system.l2.WritebackDirty_accesses::total      3320332                       # number of WritebackDirty accesses(hits+misses)
system.l2.WritebackClean_accesses::writebacks         1189                       # number of WritebackClean accesses(hits+misses)
system.l2.WritebackClean_accesses::total         1189                       # number of WritebackClean accesses(hits+misses)
system.l2.ReadExReq_accesses::cpu.data        2705247                       # number of ReadExReq accesses(hits+misses)
system.l2.ReadExReq_accesses::total           2705247                       # number of ReadExReq accesses(hits+misses)
system.l2.ReadCleanReq_accesses::cpu.inst         2074                       # number of ReadCleanReq accesses(hits+misses)
system.l2.ReadCleanReq_accesses::total           2074                       # number of ReadCleanReq accesses(hits+misses)
system.l2.ReadSharedReq_accesses::cpu.data      4097259                       # number of ReadSharedReq accesses(hits+misses)
system.l2.ReadSharedReq_accesses::total       4097259                       # number of ReadSharedReq accesses(hits+misses)
system.l2.demand_accesses::cpu.inst              2074                       # number of demand (read+write) accesses
system.l2.demand_accesses::cpu.data           6802506                       # number of demand (read+write) accesses
system.l2.demand_accesses::total              6804580                       # number of demand (read+write) accesses
system.l2.overall_accesses::cpu.inst             2074                       # number of overall (read+write) accesses
system.l2.overall_accesses::cpu.data          6802506                       # number of overall (read+write) accesses
system.l2.overall_accesses::total             6804580                       # number of overall (read+write) accesses
system.l2.ReadExReq_miss_rate::cpu.data      0.879095                       # miss rate for ReadExReq accesses
system.l2.ReadExReq_miss_rate::total         0.879095                       # miss rate for ReadExReq accesses
system.l2.ReadCleanReq_miss_rate::cpu.inst     0.887175                       # miss rate for ReadCleanReq accesses
system.l2.ReadCleanReq_miss_rate::total      0.887175                       # miss rate for ReadCleanReq accesses
system.l2.ReadSharedReq_miss_rate::cpu.data     0.613650                       # miss rate for ReadSharedReq accesses
system.l2.ReadSharedReq_miss_rate::total     0.613650                       # miss rate for ReadSharedReq accesses
system.l2.demand_miss_rate::cpu.inst         0.887175                       # miss rate for demand accesses
system.l2.demand_miss_rate::cpu.data         0.719213                       # miss rate for demand accesses
system.l2.demand_miss_rate::total            0.719264                       # miss rate for demand accesses
system.l2.overall_miss_rate::cpu.inst        0.887175                       # miss rate for overall accesses
system.l2.overall_miss_rate::cpu.data        0.719213                       # miss rate for overall accesses
system.l2.overall_miss_rate::total           0.719264                       # miss rate for overall accesses
system.l2.ReadExReq_avg_miss_latency::cpu.data 76847.786826                       # average ReadExReq miss latency
system.l2.ReadExReq_avg_miss_latency::total 76847.786826                       # average ReadExReq miss latency
system.l2.ReadCleanReq_avg_miss_latency::cpu.inst 74961.956522                       # average ReadCleanReq miss latency
system.l2.ReadCleanReq_avg_miss_latency::total 74961.956522                       # average ReadCleanReq miss latency
system.l2.ReadSharedReq_avg_miss_latency::cpu.data 74711.589348                       # average ReadSharedReq miss latency
system.l2.ReadSharedReq_avg_miss_latency::total 74711.589348                       # average ReadSharedReq miss latency
system.l2.demand_avg_miss_latency::cpu.inst 74961.956522                       # average overall miss latency
system.l2.demand_avg_miss_latency::cpu.data 75749.972049                       # average overall miss latency
system.l2.demand_avg_miss_latency::total 75749.675796                       # average overall miss latency
system.l2.overall_avg_miss_latency::cpu.inst 74961.956522                       # average overall miss latency
system.l2.overall_avg_miss_latency::cpu.data 75749.972049                       # average overall miss latency
system.l2.overall_avg_miss_latency::total 75749.675796                       # average overall miss latency
system.l2.blocked_cycles::no_mshrs                  0                       # number of cycles access was blocked
system.l2.blocked_cycles::no_targets                0                       # number of cycles access was blocked
system.l2.blocked::no_mshrs                         0                       # number of cycles access was blocked
system.l2.blocked::no_targets                       0                       # number of cycles access was blocked
system.l2.avg_blocked_cycles::no_mshrs            nan                       # average number of cycles each access was blocked
system.l2.avg_blocked_cycles::no_targets          nan                       # average number of cycles each access was blocked
system.l2.fast_writes                               0                       # number of fast writes performed
system.l2.cache_copies                              0                       # number of cache copies performed
system.l2.writebacks::writebacks              2507982                       # number of writebacks
system.l2.writebacks::total                   2507982                       # number of writebacks
system.l2.CleanEvict_mshr_misses::writebacks        57943                       # number of CleanEvict MSHR misses
system.l2.CleanEvict_mshr_misses::total         57943                       # number of CleanEvict MSHR misses
system.l2.ReadExReq_mshr_misses::cpu.data      2378168                       # number of ReadExReq MSHR misses
system.l2.ReadExReq_mshr_misses::total        2378168                       # number of ReadExReq MSHR misses
system.l2.ReadCleanReq_mshr_misses::cpu.inst         1840                       # number of ReadCleanReq MSHR misses
system.l2.ReadCleanReq_mshr_misses::total         1840                       # number of ReadCleanReq MSHR misses
system.l2.ReadSharedReq_mshr_misses::cpu.data      2514283                       # number of ReadSharedReq MSHR misses
system.l2.ReadSharedReq_mshr_misses::total      2514283                       # number of ReadSharedReq MSHR misses
system.l2.demand_mshr_misses::cpu.inst           1840                       # number of demand (read+write) MSHR misses
system.l2.demand_mshr_misses::cpu.data        4892451                       # number of demand (read+write) MSHR misses
system.l2.demand_mshr_misses::total           4894291                       # number of demand (read+write) MSHR misses
system.l2.overall_mshr_misses::cpu.inst          1840                       # number of overall MSHR misses
system.l2.overall_mshr_misses::cpu.data       4892451                       # number of overall MSHR misses
system.l2.overall_mshr_misses::total          4894291                       # number of overall MSHR misses
system.l2.ReadExReq_mshr_miss_latency::cpu.data 158975267500                       # number of ReadExReq MSHR miss cycles
system.l2.ReadExReq_mshr_miss_latency::total 158975267500                       # number of ReadExReq MSHR miss cycles
system.l2.ReadCleanReq_mshr_miss_latency::cpu.inst    119530000                       # number of ReadCleanReq MSHR miss cycles
system.l2.ReadCleanReq_mshr_miss_latency::total    119530000                       # number of ReadCleanReq MSHR miss cycles
system.l2.ReadSharedReq_mshr_miss_latency::cpu.data 162703249000                       # number of ReadSharedReq MSHR miss cycles
system.l2.ReadSharedReq_mshr_miss_latency::total 162703249000                       # number of ReadSharedReq MSHR miss cycles
system.l2.demand_mshr_miss_latency::cpu.inst    119530000                       # number of demand (read+write) MSHR miss cycles
system.l2.demand_mshr_miss_latency::cpu.data 321678516500                       # number of demand (read+write) MSHR miss cycles
system.l2.demand_mshr_miss_latency::total 321798046500                       # number of demand (read+write) MSHR miss cycles
system.l2.overall_mshr_miss_latency::cpu.inst    119530000                       # number of overall MSHR miss cycles
system.l2.overall_mshr_miss_latency::cpu.data 321678516500                       # number of overall MSHR miss cycles
system.l2.overall_mshr_miss_latency::total 321798046500                       # number of overall MSHR miss cycles
system.l2.CleanEvict_mshr_miss_rate::writebacks          inf                       # mshr miss rate for CleanEvict accesses
system.l2.CleanEvict_mshr_miss_rate::total          inf                       # mshr miss rate for CleanEvict accesses
system.l2.ReadExReq_mshr_miss_rate::cpu.data     0.879095                       # mshr miss rate for ReadExReq accesses
system.l2.ReadExReq_mshr_miss_rate::total     0.879095                       # mshr miss rate for ReadExReq accesses
system.l2.ReadCleanReq_mshr_miss_rate::cpu.inst     0.887175                       # mshr miss rate for ReadCleanReq accesses
system.l2.ReadCleanReq_mshr_miss_rate::total     0.887175                       # mshr miss rate for ReadCleanReq accesses
system.l2.ReadSharedReq_mshr_miss_rate::cpu.data     0.613650                       # mshr miss rate for ReadSharedReq accesses
system.l2.ReadSharedReq_mshr_miss_rate::total     0.613650                       # mshr miss rate for ReadSharedReq accesses
system.l2.demand_mshr_miss_rate::cpu.inst     0.887175                       # mshr miss rate for demand accesses
system.l2.demand_mshr_miss_rate::cpu.data     0.719213                       # mshr miss rate for demand accesses
system.l2.demand_mshr_miss_rate::total       0.719264                       # mshr miss rate for demand accesses
system.l2.overall_mshr_miss_rate::cpu.inst     0.887175                       # mshr miss rate for overall accesses
system.l2.overall_mshr_miss_rate::cpu.data     0.719213                       # mshr miss rate for overall accesses
system.l2.overall_mshr_miss_rate::total      0.719264                       # mshr miss rate for overall accesses
system.l2.ReadExReq_avg_mshr_miss_latency::cpu.data 66847.786826                       # average ReadExReq mshr miss latency
system.l2.ReadExReq_avg_mshr_miss_latency::total 66847.786826                       # average ReadExReq mshr miss latency
system.l2.ReadCleanReq_avg_mshr_miss_latency::cpu.inst 64961.956522                       # average ReadCleanReq mshr miss latency
system.l2.ReadCleanReq_avg_mshr_miss_latency::total 64961.956522                       # average ReadCleanReq mshr miss latency
system.l2.ReadSharedReq_avg_mshr_miss_latency::cpu.data 64711.589348                       # average ReadSharedReq mshr miss latency
system.l2.ReadSharedReq_avg_mshr_miss_latency::total 64711.589348                       # average ReadSharedReq mshr miss latency
system.l2.demand_avg_mshr_miss_latency::cpu.inst 64961.956522                       # average overall mshr miss latency
system.l2.demand_avg_mshr_miss_latency::cpu.data 65749.972049                       # average overall mshr miss latency
system.l2.demand_avg_mshr_miss_latency::total 65749.675796                       # average overall mshr miss latency
system.l2.overall_avg_mshr_miss_latency::cpu.inst 64961.956522                       # average overall mshr miss latency
system.l2.overall_avg_mshr_miss_latency::cpu.data 65749.972049                       # average overall mshr miss latency
system.l2.overall_avg_mshr_miss_latency::total 65749.675796                       # average overall mshr miss latency
system.l2.no_allocate_misses                        0                       # Number of misses that were no-allocate
system.membus.trans_dist::ReadResp            2516123                       # Transaction distribution
system.membus.trans_dist::WritebackDirty      2507982                       # Transaction distribution
system.membus.trans_dist::CleanEvict          2352594                       # Transaction distribution
system.membus.trans_dist::ReadExReq           2378168                       # Transaction distribution
system.membus.trans_dist::ReadExResp          2378168                       # Transaction distribution
system.membus.trans_dist::ReadSharedReq       2516123                       # Transaction distribution
system.membus.pkt_count_system.l2.mem_side::system.mem_ctrls.port     14649158                       # Packet count per connected master and slave (bytes)
system.membus.pkt_count_system.l2.mem_side::total     14649158                       # Packet count per connected master and slave (bytes)
system.membus.pkt_count::total               14649158                       # Packet count per connected master and slave (bytes)
system.membus.pkt_size_system.l2.mem_side::system.mem_ctrls.port    236872736                       # Cumulative packet size per connected master and slave (bytes)
system.membus.pkt_size_system.l2.mem_side::total    236872736                       # Cumulative packet size per connected master and slave (bytes)
system.membus.pkt_size::total               236872736                       # Cumulative packet size per connected master and slave (bytes)
system.membus.snoops                                0                       # Total snoops (count)
system.membus.snoop_fanout::samples           9754867                       # Request fanout histogram
system.membus.snoop_fanout::mean                    0                       # Request fanout histogram
system.membus.snoop_fanout::stdev                   0                       # Request fanout histogram
system.membus.snoop_fanout::underflows              0      0.00%      0.00% # Request fanout histogram
system.membus.snoop_fanout::0                 9754867    100.00%    100.00% # Request fanout histogram
system.membus.snoop_fanout::1                       0      0.00%    100.00% # Request fanout histogram
system.membus.snoop_fanout::overflows               0      0.00%    100.00% # Request fanout histogram
system.membus.snoop_fanout::min_value               0                       # Request fanout histogram
system.membus.snoop_fanout::max_value               0                       # Request fanout histogram
system.membus.snoop_fanout::total             9754867                       # Request fanout histogram
system.membus.reqLayer2.occupancy         14770834000                       # Layer occupancy (ticks)
system.membus.reqLayer2.utilization               1.1                       # Layer utilization (%)
system.membus.respLayer1.occupancy        16150318250                       # Layer occupancy (ticks)
system.membus.respLayer1.utilization              1.2                       # Layer utilization (%)
system.tol2bus.snoop_filter.tot_requests     13607251                       # Total number of requests made to the snoop filter.
system.tol2bus.snoop_filter.hit_single_requests      6802671                       # Number of requests hitting in the snoop filter with a single holder of the requested data.
system.tol2bus.snoop_filter.hit_multi_requests            1                       # Number of requests hitting in the snoop filter with multiple (>1) holders of the requested data.
system.tol2bus.snoop_filter.tot_snoops          68175                       # Total number of snoops made to the snoop filter.
system.tol2bus.snoop_filter.hit_single_snoops        68175                       # Number of snoops hitting in the snoop filter with a single holder of the requested data.
system.tol2bus.snoop_filter.hit_multi_snoops            0                       # Number of snoops hitting in the snoop filter with multiple (>1) holders of the requested data.
system.tol2bus.trans_dist::ReadResp           4099333                       # Transaction distribution
system.tol2bus.trans_dist::WritebackDirty      5828314                       # Transaction distribution
system.tol2bus.trans_dist::WritebackClean         1189                       # Transaction distribution
system.tol2bus.trans_dist::CleanEvict         5843975                       # Transaction distribution
system.tol2bus.trans_dist::ReadExReq          2705247                       # Transaction distribution
system.tol2bus.trans_dist::ReadExResp         2705247                       # Transaction distribution
system.tol2bus.trans_dist::ReadCleanReq          2074                       # Transaction distribution
system.tol2bus.trans_dist::ReadSharedReq      4097259                       # Transaction distribution
system.tol2bus.pkt_count_system.cpu.icache.mem_side::system.l2.cpu_side         5337                       # Packet count per connected master and slave (bytes)
system.tol2bus.pkt_count_system.cpu.dcache.mem_side::system.l2.cpu_side     20406493                       # Packet count per connected master and slave (bytes)
system.tol2bus.pkt_count::total              20411830                       # Packet count per connected master and slave (bytes)
system.tol2bus.pkt_size_system.cpu.icache.mem_side::system.l2.cpu_side       104416                       # Cumulative packet size per connected master and slave (bytes)
system.tol2bus.pkt_size_system.cpu.dcache.mem_side::system.l2.cpu_side    323930816                       # Cumulative packet size per connected master and slave (bytes)
system.tol2bus.pkt_size::total              324035232                       # Cumulative packet size per connected master and slave (bytes)
system.tol2bus.snoops                         4870808                       # Total snoops (count)
system.tol2bus.snoop_fanout::samples         11675388                       # Request fanout histogram
system.tol2bus.snoop_fanout::mean            0.005839                       # Request fanout histogram
system.tol2bus.snoop_fanout::stdev           0.076192                       # Request fanout histogram
system.tol2bus.snoop_fanout::underflows             0      0.00%      0.00% # Request fanout histogram
system.tol2bus.snoop_fanout::0               11607212     99.42%     99.42% # Request fanout histogram
system.tol2bus.snoop_fanout::1                  68176      0.58%    100.00% # Request fanout histogram
system.tol2bus.snoop_fanout::2                      0      0.00%    100.00% # Request fanout histogram
system.tol2bus.snoop_fanout::3                      0      0.00%    100.00% # Request fanout histogram
system.tol2bus.snoop_fanout::4                      0      0.00%    100.00% # Request fanout histogram
system.tol2bus.snoop_fanout::overflows              0      0.00%    100.00% # Request fanout histogram
system.tol2bus.snoop_fanout::min_value              0                       # Request fanout histogram
system.tol2bus.snoop_fanout::max_value              1                       # Request fanout histogram
system.tol2bus.snoop_fanout::total           11675388                       # Request fanout histogram
system.tol2bus.reqLayer0.occupancy         8464386000                       # Layer occupancy (ticks)
system.tol2bus.reqLayer0.utilization              0.6                       # Layer utilization (%)
system.tol2bus.respLayer0.occupancy           2074000                       # Layer occupancy (ticks)
system.tol2bus.respLayer0.utilization             0.0                       # Layer utilization (%)
system.tol2bus.respLayer1.occupancy        6802506000                       # Layer occupancy (ticks)
system.tol2bus.respLayer1.utilization             0.5                       # Layer utilization (%)

---------- End Simulation Statistics   ----------
