
---------- Begin Simulation Statistics ----------
sim_seconds                                  1.379009                       # Number of seconds simulated
sim_ticks                               1379008984500                       # Number of ticks simulated
final_tick                               1379008984500                       # Number of ticks from beginning of simulation (restored from checkpoints and never reset)
sim_freq                                 1000000000000                       # Frequency of simulated ticks
host_inst_rate                                 657009                       # Simulator instruction rate (inst/s)
host_op_rate                                   957838                       # Simulator op (including micro ops) rate (op/s)
host_tick_rate                             1812042846                       # Simulator tick rate (ticks/s)
host_mem_usage                                 835388                       # Number of bytes of host memory used
host_seconds                                   761.02                       # Real time elapsed on the host
sim_insts                                   500000001                       # Number of instructions simulated
sim_ops                                     728937824                       # Number of ops (including micro ops) simulated
system.voltage_domain.voltage                       1                       # Voltage in Volts
system.clk_domain.clock                          1000                       # Clock period in ticks
system.mem_ctrls.bytes_read::cpu.inst           58880                       # Number of bytes read from this memory
system.mem_ctrls.bytes_read::cpu.data       156294400                       # Number of bytes read from this memory
system.mem_ctrls.bytes_read::total          156353280                       # Number of bytes read from this memory
system.mem_ctrls.bytes_inst_read::cpu.inst        58880                       # Number of instructions bytes read from this memory
system.mem_ctrls.bytes_inst_read::total         58880                       # Number of instructions bytes read from this memory
system.mem_ctrls.bytes_written::writebacks     79826656                       # Number of bytes written to this memory
system.mem_ctrls.bytes_written::total        79826656                       # Number of bytes written to this memory
system.mem_ctrls.num_reads::cpu.inst             1840                       # Number of read requests responded to by this memory
system.mem_ctrls.num_reads::cpu.data          4884200                       # Number of read requests responded to by this memory
system.mem_ctrls.num_reads::total             4886040                       # Number of read requests responded to by this memory
system.mem_ctrls.num_writes::writebacks       2494583                       # Number of write requests responded to by this memory
system.mem_ctrls.num_writes::total            2494583                       # Number of write requests responded to by this memory
system.mem_ctrls.bw_read::cpu.inst              42697                       # Total read bandwidth from this memory (bytes/s)
system.mem_ctrls.bw_read::cpu.data          113338203                       # Total read bandwidth from this memory (bytes/s)
system.mem_ctrls.bw_read::total             113380900                       # Total read bandwidth from this memory (bytes/s)
system.mem_ctrls.bw_inst_read::cpu.inst         42697                       # Instruction read bandwidth from this memory (bytes/s)
system.mem_ctrls.bw_inst_read::total            42697                       # Instruction read bandwidth from this memory (bytes/s)
system.mem_ctrls.bw_write::writebacks        57886973                       # Write bandwidth from this memory (bytes/s)
system.mem_ctrls.bw_write::total             57886973                       # Write bandwidth from this memory (bytes/s)
system.mem_ctrls.bw_total::writebacks        57886973                       # Total bandwidth to/from this memory (bytes/s)
system.mem_ctrls.bw_total::cpu.inst             42697                       # Total bandwidth to/from this memory (bytes/s)
system.mem_ctrls.bw_total::cpu.data         113338203                       # Total bandwidth to/from this memory (bytes/s)
system.mem_ctrls.bw_total::total            171267873                       # Total bandwidth to/from this memory (bytes/s)
system.mem_ctrls.readReqs                     4886040                       # Number of read requests accepted
system.mem_ctrls.writeReqs                    2494583                       # Number of write requests accepted
system.mem_ctrls.readBursts                   4886040                       # Number of DRAM read bursts, including those serviced by the write queue
system.mem_ctrls.writeBursts                  2494583                       # Number of DRAM write bursts, including those merged in the write queue
system.mem_ctrls.bytesReadDRAM              312664576                       # Total number of bytes read from DRAM
system.mem_ctrls.bytesReadWrQ                   41984                       # Total number of bytes read from write queue
system.mem_ctrls.bytesWritten                98843712                       # Total number of bytes written to DRAM
system.mem_ctrls.bytesReadSys               156353280                       # Total read bytes from the system interface side
system.mem_ctrls.bytesWrittenSys             79826656                       # Total written bytes from the system interface side
system.mem_ctrls.servicedByWrQ                    656                       # Number of DRAM read bursts serviced by the write queue
system.mem_ctrls.mergedWrBursts                950123                       # Number of DRAM write bursts merged with an existing one
system.mem_ctrls.neitherReadNorWriteReqs      2357657                       # Number of requests that are neither read nor write
system.mem_ctrls.perBankRdBursts::0            307893                       # Per bank write bursts
system.mem_ctrls.perBankRdBursts::1            306276                       # Per bank write bursts
system.mem_ctrls.perBankRdBursts::2            306005                       # Per bank write bursts
system.mem_ctrls.perBankRdBursts::3            303316                       # Per bank write bursts
system.mem_ctrls.perBankRdBursts::4            302757                       # Per bank write bursts
system.mem_ctrls.perBankRdBursts::5            302982                       # Per bank write bursts
system.mem_ctrls.perBankRdBursts::6            305657                       # Per bank write bursts
system.mem_ctrls.perBankRdBursts::7            303839                       # Per bank write bursts
system.mem_ctrls.perBankRdBursts::8            301615                       # Per bank write bursts
system.mem_ctrls.perBankRdBursts::9            301546                       # Per bank write bursts
system.mem_ctrls.perBankRdBursts::10           305089                       # Per bank write bursts
system.mem_ctrls.perBankRdBursts::11           305843                       # Per bank write bursts
system.mem_ctrls.perBankRdBursts::12           308618                       # Per bank write bursts
system.mem_ctrls.perBankRdBursts::13           307689                       # Per bank write bursts
system.mem_ctrls.perBankRdBursts::14           307769                       # Per bank write bursts
system.mem_ctrls.perBankRdBursts::15           308490                       # Per bank write bursts
system.mem_ctrls.perBankWrBursts::0             97552                       # Per bank write bursts
system.mem_ctrls.perBankWrBursts::1             97075                       # Per bank write bursts
system.mem_ctrls.perBankWrBursts::2             97960                       # Per bank write bursts
system.mem_ctrls.perBankWrBursts::3             95986                       # Per bank write bursts
system.mem_ctrls.perBankWrBursts::4             95450                       # Per bank write bursts
system.mem_ctrls.perBankWrBursts::5             94900                       # Per bank write bursts
system.mem_ctrls.perBankWrBursts::6             96388                       # Per bank write bursts
system.mem_ctrls.perBankWrBursts::7             95943                       # Per bank write bursts
system.mem_ctrls.perBankWrBursts::8             95245                       # Per bank write bursts
system.mem_ctrls.perBankWrBursts::9             95331                       # Per bank write bursts
system.mem_ctrls.perBankWrBursts::10            96496                       # Per bank write bursts
system.mem_ctrls.perBankWrBursts::11            96260                       # Per bank write bursts
system.mem_ctrls.perBankWrBursts::12            97108                       # Per bank write bursts
system.mem_ctrls.perBankWrBursts::13            97223                       # Per bank write bursts
system.mem_ctrls.perBankWrBursts::14            97425                       # Per bank write bursts
system.mem_ctrls.perBankWrBursts::15            98091                       # Per bank write bursts
system.mem_ctrls.numRdRetry                         0                       # Number of times read queue was full causing retry
system.mem_ctrls.numWrRetry                         0                       # Number of times write queue was full causing retry
system.mem_ctrls.totGap                  1377880246500                       # Total gap between requests
system.mem_ctrls.readPktSize::0                     0                       # Read request sizes (log2)
system.mem_ctrls.readPktSize::1                     0                       # Read request sizes (log2)
system.mem_ctrls.readPktSize::2                     0                       # Read request sizes (log2)
system.mem_ctrls.readPktSize::3                     0                       # Read request sizes (log2)
system.mem_ctrls.readPktSize::4                     0                       # Read request sizes (log2)
system.mem_ctrls.readPktSize::5               4886040                       # Read request sizes (log2)
system.mem_ctrls.readPktSize::6                     0                       # Read request sizes (log2)
system.mem_ctrls.writePktSize::0                    0                       # Write request sizes (log2)
system.mem_ctrls.writePktSize::1                    0                       # Write request sizes (log2)
system.mem_ctrls.writePktSize::2                    0                       # Write request sizes (log2)
system.mem_ctrls.writePktSize::3                    0                       # Write request sizes (log2)
system.mem_ctrls.writePktSize::4                    0                       # Write request sizes (log2)
system.mem_ctrls.writePktSize::5              2494583                       # Write request sizes (log2)
system.mem_ctrls.writePktSize::6                    0                       # Write request sizes (log2)
system.mem_ctrls.rdQLenPdf::0                 4819845                       # What read queue length does an incoming req see
system.mem_ctrls.rdQLenPdf::1                   32770                       # What read queue length does an incoming req see
system.mem_ctrls.rdQLenPdf::2                   32769                       # What read queue length does an incoming req see
system.mem_ctrls.rdQLenPdf::3                       0                       # What read queue length does an incoming req see
system.mem_ctrls.rdQLenPdf::4                       0                       # What read queue length does an incoming req see
system.mem_ctrls.rdQLenPdf::5                       0                       # What read queue length does an incoming req see
system.mem_ctrls.rdQLenPdf::6                       0                       # What read queue length does an incoming req see
system.mem_ctrls.rdQLenPdf::7                       0                       # What read queue length does an incoming req see
system.mem_ctrls.rdQLenPdf::8                       0                       # What read queue length does an incoming req see
system.mem_ctrls.rdQLenPdf::9                       0                       # What read queue length does an incoming req see
system.mem_ctrls.rdQLenPdf::10                      0                       # What read queue length does an incoming req see
system.mem_ctrls.rdQLenPdf::11                      0                       # What read queue length does an incoming req see
system.mem_ctrls.rdQLenPdf::12                      0                       # What read queue length does an incoming req see
system.mem_ctrls.rdQLenPdf::13                      0                       # What read queue length does an incoming req see
system.mem_ctrls.rdQLenPdf::14                      0                       # What read queue length does an incoming req see
system.mem_ctrls.rdQLenPdf::15                      0                       # What read queue length does an incoming req see
system.mem_ctrls.rdQLenPdf::16                      0                       # What read queue length does an incoming req see
system.mem_ctrls.rdQLenPdf::17                      0                       # What read queue length does an incoming req see
system.mem_ctrls.rdQLenPdf::18                      0                       # What read queue length does an incoming req see
system.mem_ctrls.rdQLenPdf::19                      0                       # What read queue length does an incoming req see
system.mem_ctrls.rdQLenPdf::20                      0                       # What read queue length does an incoming req see
system.mem_ctrls.rdQLenPdf::21                      0                       # What read queue length does an incoming req see
system.mem_ctrls.rdQLenPdf::22                      0                       # What read queue length does an incoming req see
system.mem_ctrls.rdQLenPdf::23                      0                       # What read queue length does an incoming req see
system.mem_ctrls.rdQLenPdf::24                      0                       # What read queue length does an incoming req see
system.mem_ctrls.rdQLenPdf::25                      0                       # What read queue length does an incoming req see
system.mem_ctrls.rdQLenPdf::26                      0                       # What read queue length does an incoming req see
system.mem_ctrls.rdQLenPdf::27                      0                       # What read queue length does an incoming req see
system.mem_ctrls.rdQLenPdf::28                      0                       # What read queue length does an incoming req see
system.mem_ctrls.rdQLenPdf::29                      0                       # What read queue length does an incoming req see
system.mem_ctrls.rdQLenPdf::30                      0                       # What read queue length does an incoming req see
system.mem_ctrls.rdQLenPdf::31                      0                       # What read queue length does an incoming req see
system.mem_ctrls.wrQLenPdf::0                       1                       # What write queue length does an incoming req see
system.mem_ctrls.wrQLenPdf::1                       1                       # What write queue length does an incoming req see
system.mem_ctrls.wrQLenPdf::2                       1                       # What write queue length does an incoming req see
system.mem_ctrls.wrQLenPdf::3                       1                       # What write queue length does an incoming req see
system.mem_ctrls.wrQLenPdf::4                       1                       # What write queue length does an incoming req see
system.mem_ctrls.wrQLenPdf::5                       1                       # What write queue length does an incoming req see
system.mem_ctrls.wrQLenPdf::6                       1                       # What write queue length does an incoming req see
system.mem_ctrls.wrQLenPdf::7                       1                       # What write queue length does an incoming req see
system.mem_ctrls.wrQLenPdf::8                       1                       # What write queue length does an incoming req see
system.mem_ctrls.wrQLenPdf::9                       1                       # What write queue length does an incoming req see
system.mem_ctrls.wrQLenPdf::10                      1                       # What write queue length does an incoming req see
system.mem_ctrls.wrQLenPdf::11                      1                       # What write queue length does an incoming req see
system.mem_ctrls.wrQLenPdf::12                      1                       # What write queue length does an incoming req see
system.mem_ctrls.wrQLenPdf::13                      1                       # What write queue length does an incoming req see
system.mem_ctrls.wrQLenPdf::14                      1                       # What write queue length does an incoming req see
system.mem_ctrls.wrQLenPdf::15                  17574                       # What write queue length does an incoming req see
system.mem_ctrls.wrQLenPdf::16                  18861                       # What write queue length does an incoming req see
system.mem_ctrls.wrQLenPdf::17                  92436                       # What write queue length does an incoming req see
system.mem_ctrls.wrQLenPdf::18                  93919                       # What write queue length does an incoming req see
system.mem_ctrls.wrQLenPdf::19                  94234                       # What write queue length does an incoming req see
system.mem_ctrls.wrQLenPdf::20                  94240                       # What write queue length does an incoming req see
system.mem_ctrls.wrQLenPdf::21                  94228                       # What write queue length does an incoming req see
system.mem_ctrls.wrQLenPdf::22                  94225                       # What write queue length does an incoming req see
system.mem_ctrls.wrQLenPdf::23                  94224                       # What write queue length does an incoming req see
system.mem_ctrls.wrQLenPdf::24                  94220                       # What write queue length does an incoming req see
system.mem_ctrls.wrQLenPdf::25                  94251                       # What write queue length does an incoming req see
system.mem_ctrls.wrQLenPdf::26                  94265                       # What write queue length does an incoming req see
system.mem_ctrls.wrQLenPdf::27                  94367                       # What write queue length does an incoming req see
system.mem_ctrls.wrQLenPdf::28                  94950                       # What write queue length does an incoming req see
system.mem_ctrls.wrQLenPdf::29                  94916                       # What write queue length does an incoming req see
system.mem_ctrls.wrQLenPdf::30                  94225                       # What write queue length does an incoming req see
system.mem_ctrls.wrQLenPdf::31                  95038                       # What write queue length does an incoming req see
system.mem_ctrls.wrQLenPdf::32                  94249                       # What write queue length does an incoming req see
system.mem_ctrls.wrQLenPdf::33                     19                       # What write queue length does an incoming req see
system.mem_ctrls.wrQLenPdf::34                      4                       # What write queue length does an incoming req see
system.mem_ctrls.wrQLenPdf::35                      0                       # What write queue length does an incoming req see
system.mem_ctrls.wrQLenPdf::36                      0                       # What write queue length does an incoming req see
system.mem_ctrls.wrQLenPdf::37                      0                       # What write queue length does an incoming req see
system.mem_ctrls.wrQLenPdf::38                      0                       # What write queue length does an incoming req see
system.mem_ctrls.wrQLenPdf::39                      0                       # What write queue length does an incoming req see
system.mem_ctrls.wrQLenPdf::40                      0                       # What write queue length does an incoming req see
system.mem_ctrls.wrQLenPdf::41                      0                       # What write queue length does an incoming req see
system.mem_ctrls.wrQLenPdf::42                      0                       # What write queue length does an incoming req see
system.mem_ctrls.wrQLenPdf::43                      0                       # What write queue length does an incoming req see
system.mem_ctrls.wrQLenPdf::44                      0                       # What write queue length does an incoming req see
system.mem_ctrls.wrQLenPdf::45                      0                       # What write queue length does an incoming req see
system.mem_ctrls.wrQLenPdf::46                      0                       # What write queue length does an incoming req see
system.mem_ctrls.wrQLenPdf::47                      0                       # What write queue length does an incoming req see
system.mem_ctrls.wrQLenPdf::48                      0                       # What write queue length does an incoming req see
system.mem_ctrls.wrQLenPdf::49                      0                       # What write queue length does an incoming req see
system.mem_ctrls.wrQLenPdf::50                      0                       # What write queue length does an incoming req see
system.mem_ctrls.wrQLenPdf::51                      0                       # What write queue length does an incoming req see
system.mem_ctrls.wrQLenPdf::52                      0                       # What write queue length does an incoming req see
system.mem_ctrls.wrQLenPdf::53                      0                       # What write queue length does an incoming req see
system.mem_ctrls.wrQLenPdf::54                      0                       # What write queue length does an incoming req see
system.mem_ctrls.wrQLenPdf::55                      0                       # What write queue length does an incoming req see
system.mem_ctrls.wrQLenPdf::56                      0                       # What write queue length does an incoming req see
system.mem_ctrls.wrQLenPdf::57                      0                       # What write queue length does an incoming req see
system.mem_ctrls.wrQLenPdf::58                      0                       # What write queue length does an incoming req see
system.mem_ctrls.wrQLenPdf::59                      0                       # What write queue length does an incoming req see
system.mem_ctrls.wrQLenPdf::60                      0                       # What write queue length does an incoming req see
system.mem_ctrls.wrQLenPdf::61                      0                       # What write queue length does an incoming req see
system.mem_ctrls.wrQLenPdf::62                      0                       # What write queue length does an incoming req see
system.mem_ctrls.wrQLenPdf::63                      0                       # What write queue length does an incoming req see
system.mem_ctrls.bytesPerActivate::samples      1153346                       # Bytes accessed per row activation
system.mem_ctrls.bytesPerActivate::mean    356.795175                       # Bytes accessed per row activation
system.mem_ctrls.bytesPerActivate::gmean   186.929618                       # Bytes accessed per row activation
system.mem_ctrls.bytesPerActivate::stdev   381.777554                       # Bytes accessed per row activation
system.mem_ctrls.bytesPerActivate::0-127       523445     45.38%     45.38% # Bytes accessed per row activation
system.mem_ctrls.bytesPerActivate::128-255       171367     14.86%     60.24% # Bytes accessed per row activation
system.mem_ctrls.bytesPerActivate::256-383        55704      4.83%     65.07% # Bytes accessed per row activation
system.mem_ctrls.bytesPerActivate::384-511        33710      2.92%     68.00% # Bytes accessed per row activation
system.mem_ctrls.bytesPerActivate::512-639        72128      6.25%     74.25% # Bytes accessed per row activation
system.mem_ctrls.bytesPerActivate::640-767        17300      1.50%     75.75% # Bytes accessed per row activation
system.mem_ctrls.bytesPerActivate::768-895        37177      3.22%     78.97% # Bytes accessed per row activation
system.mem_ctrls.bytesPerActivate::896-1023        27874      2.42%     81.39% # Bytes accessed per row activation
system.mem_ctrls.bytesPerActivate::1024-1151       214641     18.61%    100.00% # Bytes accessed per row activation
system.mem_ctrls.bytesPerActivate::total      1153346                       # Bytes accessed per row activation
system.mem_ctrls.rdPerTurnAround::samples        94217                       # Reads before turning the bus around for writes
system.mem_ctrls.rdPerTurnAround::mean      51.595572                       # Reads before turning the bus around for writes
system.mem_ctrls.rdPerTurnAround::gmean     43.126677                       # Reads before turning the bus around for writes
system.mem_ctrls.rdPerTurnAround::stdev    122.173897                       # Reads before turning the bus around for writes
system.mem_ctrls.rdPerTurnAround::0-1023        94174     99.95%     99.95% # Reads before turning the bus around for writes
system.mem_ctrls.rdPerTurnAround::1024-2047           35      0.04%     99.99% # Reads before turning the bus around for writes
system.mem_ctrls.rdPerTurnAround::4096-5119            1      0.00%     99.99% # Reads before turning the bus around for writes
system.mem_ctrls.rdPerTurnAround::5120-6143            1      0.00%     99.99% # Reads before turning the bus around for writes
system.mem_ctrls.rdPerTurnAround::7168-8191            1      0.00%     99.99% # Reads before turning the bus around for writes
system.mem_ctrls.rdPerTurnAround::8192-9215            1      0.00%    100.00% # Reads before turning the bus around for writes
system.mem_ctrls.rdPerTurnAround::10240-11263            1      0.00%    100.00% # Reads before turning the bus around for writes
system.mem_ctrls.rdPerTurnAround::13312-14335            1      0.00%    100.00% # Reads before turning the bus around for writes
system.mem_ctrls.rdPerTurnAround::17408-18431            1      0.00%    100.00% # Reads before turning the bus around for writes
system.mem_ctrls.rdPerTurnAround::20480-21503            1      0.00%    100.00% # Reads before turning the bus around for writes
system.mem_ctrls.rdPerTurnAround::total         94217                       # Reads before turning the bus around for writes
system.mem_ctrls.wrPerTurnAround::samples        94217                       # Writes before turning the bus around for reads
system.mem_ctrls.wrPerTurnAround::mean      16.392297                       # Writes before turning the bus around for reads
system.mem_ctrls.wrPerTurnAround::gmean     16.373893                       # Writes before turning the bus around for reads
system.mem_ctrls.wrPerTurnAround::stdev      0.796217                       # Writes before turning the bus around for reads
system.mem_ctrls.wrPerTurnAround::16            75360     79.99%     79.99% # Writes before turning the bus around for reads
system.mem_ctrls.wrPerTurnAround::17             1265      1.34%     81.33% # Writes before turning the bus around for reads
system.mem_ctrls.wrPerTurnAround::18            17096     18.15%     99.47% # Writes before turning the bus around for reads
system.mem_ctrls.wrPerTurnAround::19              482      0.51%     99.99% # Writes before turning the bus around for reads
system.mem_ctrls.wrPerTurnAround::20               12      0.01%    100.00% # Writes before turning the bus around for reads
system.mem_ctrls.wrPerTurnAround::21                2      0.00%    100.00% # Writes before turning the bus around for reads
system.mem_ctrls.wrPerTurnAround::total         94217                       # Writes before turning the bus around for reads
system.mem_ctrls.totQLat                  35088954000                       # Total ticks spent queuing
system.mem_ctrls.totMemAccLat            126689904000                       # Total ticks spent from burst creation until serviced by the DRAM
system.mem_ctrls.totBusLat                24426920000                       # Total ticks spent in databus transfers
system.mem_ctrls.avgQLat                      7182.44                       # Average queueing delay per DRAM burst
system.mem_ctrls.avgBusLat                    5000.00                       # Average bus latency per DRAM burst
system.mem_ctrls.avgMemAccLat                25932.44                       # Average memory access latency per DRAM burst
system.mem_ctrls.avgRdBW                       226.73                       # Average DRAM read bandwidth in MiByte/s
system.mem_ctrls.avgWrBW                        71.68                       # Average achieved write bandwidth in MiByte/s
system.mem_ctrls.avgRdBWSys                    113.38                       # Average system read bandwidth in MiByte/s
system.mem_ctrls.avgWrBWSys                     57.89                       # Average system write bandwidth in MiByte/s
system.mem_ctrls.peakBW                      12800.00                       # Theoretical peak bandwidth in MiByte/s
system.mem_ctrls.busUtil                         2.33                       # Data bus utilization in percentage
system.mem_ctrls.busUtilRead                     1.77                       # Data bus utilization in percentage for reads
system.mem_ctrls.busUtilWrite                    0.56                       # Data bus utilization in percentage for writes
system.mem_ctrls.avgRdQLen                       1.00                       # Average read queue length when enqueuing
system.mem_ctrls.avgWrQLen                      24.31                       # Average write queue length when enqueuing
system.mem_ctrls.readRowHits                  4062392                       # Number of row buffer hits during reads
system.mem_ctrls.writeRowHits                 1214079                       # Number of row buffer hits during writes
system.mem_ctrls.readRowHitRate                 83.15                       # Row buffer hit rate for reads
system.mem_ctrls.writeRowHitRate                78.61                       # Row buffer hit rate for writes
system.mem_ctrls.avgGap                     186688.88                       # Average gap between requests
system.mem_ctrls.pageHitRate                    82.06                       # Row buffer hit rate, read and write combined
system.mem_ctrls_0.actEnergy               4322626560                       # Energy for activate commands per rank (pJ)
system.mem_ctrls_0.preEnergy               2358576000                       # Energy for precharge commands per rank (pJ)
system.mem_ctrls_0.readEnergy             19022055000                       # Energy for read commands per rank (pJ)
system.mem_ctrls_0.writeEnergy             4997725920                       # Energy for write commands per rank (pJ)
system.mem_ctrls_0.refreshEnergy          90070044480                       # Energy for refresh commands per rank (pJ)
system.mem_ctrls_0.actBackEnergy         441564894495                       # Energy for active background per rank (pJ)
system.mem_ctrls_0.preBackEnergy         440066820000                       # Energy for precharge background per rank (pJ)
system.mem_ctrls_0.totalEnergy           1002402742455                       # Total energy per rank (pJ)
system.mem_ctrls_0.averagePower            726.901635                       # Core power per rank (mW)
system.mem_ctrls_0.memoryStateTime::IDLE 728651268750                       # Time in different power states
system.mem_ctrls_0.memoryStateTime::REF   46048080000                       # Time in different power states
system.mem_ctrls_0.memoryStateTime::PRE_PDN            0                       # Time in different power states
system.mem_ctrls_0.memoryStateTime::ACT  604308076250                       # Time in different power states
system.mem_ctrls_0.memoryStateTime::ACT_PDN            0                       # Time in different power states
system.mem_ctrls_1.actEnergy               4396669200                       # Energy for activate commands per rank (pJ)
system.mem_ctrls_1.preEnergy               2398976250                       # Energy for precharge commands per rank (pJ)
system.mem_ctrls_1.readEnergy             19083940200                       # Energy for read commands per rank (pJ)
system.mem_ctrls_1.writeEnergy             5010199920                       # Energy for write commands per rank (pJ)
system.mem_ctrls_1.refreshEnergy          90070044480                       # Energy for refresh commands per rank (pJ)
system.mem_ctrls_1.actBackEnergy         443485781100                       # Energy for active background per rank (pJ)
system.mem_ctrls_1.preBackEnergy         438381831750                       # Energy for precharge background per rank (pJ)
system.mem_ctrls_1.totalEnergy           1002827442900                       # Total energy per rank (pJ)
system.mem_ctrls_1.averagePower            727.209611                       # Core power per rank (mW)
system.mem_ctrls_1.memoryStateTime::IDLE 725812679250                       # Time in different power states
system.mem_ctrls_1.memoryStateTime::REF   46048080000                       # Time in different power states
system.mem_ctrls_1.memoryStateTime::PRE_PDN            0                       # Time in different power states
system.mem_ctrls_1.memoryStateTime::ACT  607146665750                       # Time in different power states
system.mem_ctrls_1.memoryStateTime::ACT_PDN            0                       # Time in different power states
system.cpu_voltage_domain.voltage                   1                       # Voltage in Volts
system.cpu_clk_domain.clock                       500                       # Clock period in ticks
system.cpu.apic_clk_domain.clock                 8000                       # Clock period in ticks
system.cpu.workload.num_syscalls                   89                       # Number of system calls
system.cpu.numCycles                       2758017969                       # number of cpu cycles simulated
system.cpu.numWorkItemsStarted                      0                       # number of work items this cpu started
system.cpu.numWorkItemsCompleted                    0                       # number of work items this cpu completed
system.cpu.committedInsts                   500000001                       # Number of instructions committed
system.cpu.committedOps                     728937824                       # Number of ops (including micro ops) committed
system.cpu.num_int_alu_accesses             727310589                       # Number of integer alu accesses
system.cpu.num_fp_alu_accesses                    843                       # Number of float alu accesses
system.cpu.num_func_calls                     1427761                       # number of times a function call or return occured
system.cpu.num_conditional_control_insts     32105501                       # number of instructions that are conditional controls
system.cpu.num_int_insts                    727310589                       # number of integer instructions
system.cpu.num_fp_insts                           843                       # number of float instructions
system.cpu.num_int_register_reads          1714991297                       # number of times the integer registers were read
system.cpu.num_int_register_writes          612733141                       # number of times the integer registers were written
system.cpu.num_fp_register_reads                 1319                       # number of times the floating registers were read
system.cpu.num_fp_register_writes                 577                       # number of times the floating registers were written
system.cpu.num_cc_register_reads            181720629                       # number of times the CC registers were read
system.cpu.num_cc_register_writes           264518979                       # number of times the CC registers were written
system.cpu.num_mem_refs                     304821783                       # number of memory refs
system.cpu.num_load_insts                   228115222                       # Number of load instructions
system.cpu.num_store_insts                   76706561                       # Number of store instructions
system.cpu.num_idle_cycles                          0                       # Number of idle cycles
system.cpu.num_busy_cycles                 2758017969                       # Number of busy cycles
system.cpu.not_idle_fraction                        1                       # Percentage of non-idle cycles
system.cpu.idle_fraction                            0                       # Percentage of idle cycles
system.cpu.Branches                          38073397                       # Number of branches fetched
system.cpu.op_class::No_OpClass                960306      0.13%      0.13% # Class of executed instruction
system.cpu.op_class::IntAlu                 423024114     58.03%     58.16% # Class of executed instruction
system.cpu.op_class::IntMult                   130951      0.02%     58.18% # Class of executed instruction
system.cpu.op_class::IntDiv                       140      0.00%     58.18% # Class of executed instruction
system.cpu.op_class::FloatAdd                     530      0.00%     58.18% # Class of executed instruction
system.cpu.op_class::FloatCmp                       0      0.00%     58.18% # Class of executed instruction
system.cpu.op_class::FloatCvt                       0      0.00%     58.18% # Class of executed instruction
system.cpu.op_class::FloatMult                      0      0.00%     58.18% # Class of executed instruction
system.cpu.op_class::FloatDiv                       0      0.00%     58.18% # Class of executed instruction
system.cpu.op_class::FloatSqrt                      0      0.00%     58.18% # Class of executed instruction
system.cpu.op_class::SimdAdd                        0      0.00%     58.18% # Class of executed instruction
system.cpu.op_class::SimdAddAcc                     0      0.00%     58.18% # Class of executed instruction
system.cpu.op_class::SimdAlu                        0      0.00%     58.18% # Class of executed instruction
system.cpu.op_class::SimdCmp                        0      0.00%     58.18% # Class of executed instruction
system.cpu.op_class::SimdCvt                        0      0.00%     58.18% # Class of executed instruction
system.cpu.op_class::SimdMisc                       0      0.00%     58.18% # Class of executed instruction
system.cpu.op_class::SimdMult                       0      0.00%     58.18% # Class of executed instruction
system.cpu.op_class::SimdMultAcc                    0      0.00%     58.18% # Class of executed instruction
system.cpu.op_class::SimdShift                      0      0.00%     58.18% # Class of executed instruction
system.cpu.op_class::SimdShiftAcc                   0      0.00%     58.18% # Class of executed instruction
system.cpu.op_class::SimdSqrt                       0      0.00%     58.18% # Class of executed instruction
system.cpu.op_class::SimdFloatAdd                   0      0.00%     58.18% # Class of executed instruction
system.cpu.op_class::SimdFloatAlu                   0      0.00%     58.18% # Class of executed instruction
system.cpu.op_class::SimdFloatCmp                   0      0.00%     58.18% # Class of executed instruction
system.cpu.op_class::SimdFloatCvt                   0      0.00%     58.18% # Class of executed instruction
system.cpu.op_class::SimdFloatDiv                   0      0.00%     58.18% # Class of executed instruction
system.cpu.op_class::SimdFloatMisc                  0      0.00%     58.18% # Class of executed instruction
system.cpu.op_class::SimdFloatMult                  0      0.00%     58.18% # Class of executed instruction
system.cpu.op_class::SimdFloatMultAcc               0      0.00%     58.18% # Class of executed instruction
system.cpu.op_class::SimdFloatSqrt                  0      0.00%     58.18% # Class of executed instruction
system.cpu.op_class::MemRead                228115222     31.29%     89.48% # Class of executed instruction
system.cpu.op_class::MemWrite                76706561     10.52%    100.00% # Class of executed instruction
system.cpu.op_class::IprAccess                      0      0.00%    100.00% # Class of executed instruction
system.cpu.op_class::InstPrefetch                   0      0.00%    100.00% # Class of executed instruction
system.cpu.op_class::total                  728937824                       # Class of executed instruction
system.cpu.dcache.tags.replacements           6047156                       # number of replacements
system.cpu.dcache.tags.tagsinuse          4037.790192                       # Cycle average of tags in use
system.cpu.dcache.tags.total_refs           298770545                       # Total number of references to valid blocks.
system.cpu.dcache.tags.sampled_refs           6051252                       # Sample count of references to valid blocks.
system.cpu.dcache.tags.avg_refs             49.373344                       # Average number of references to valid blocks.
system.cpu.dcache.tags.warmup_cycle       21908172500                       # Cycle when the warmup percentage was hit.
system.cpu.dcache.tags.occ_blocks::cpu.data  4037.790192                       # Average occupied blocks per requestor
system.cpu.dcache.tags.occ_percent::cpu.data     0.985789                       # Average percentage of cache occupancy
system.cpu.dcache.tags.occ_percent::total     0.985789                       # Average percentage of cache occupancy
system.cpu.dcache.tags.occ_task_id_blocks::1024         4096                       # Occupied blocks per task id
system.cpu.dcache.tags.age_task_id_blocks_1024::0            5                       # Occupied blocks per task id
system.cpu.dcache.tags.age_task_id_blocks_1024::1           51                       # Occupied blocks per task id
system.cpu.dcache.tags.age_task_id_blocks_1024::2          502                       # Occupied blocks per task id
system.cpu.dcache.tags.age_task_id_blocks_1024::3         3088                       # Occupied blocks per task id
system.cpu.dcache.tags.age_task_id_blocks_1024::4          450                       # Occupied blocks per task id
system.cpu.dcache.tags.occ_task_id_percent::1024            1                       # Percentage of cache occupancy per task id
system.cpu.dcache.tags.tag_accesses        2444625628                       # Number of tag accesses
system.cpu.dcache.tags.data_accesses       2444625628                       # Number of data accesses
system.cpu.dcache.ReadReq_hits::cpu.data    224674108                       # number of ReadReq hits
system.cpu.dcache.ReadReq_hits::total       224674108                       # number of ReadReq hits
system.cpu.dcache.WriteReq_hits::cpu.data     74096437                       # number of WriteReq hits
system.cpu.dcache.WriteReq_hits::total       74096437                       # number of WriteReq hits
system.cpu.dcache.demand_hits::cpu.data     298770545                       # number of demand (read+write) hits
system.cpu.dcache.demand_hits::total        298770545                       # number of demand (read+write) hits
system.cpu.dcache.overall_hits::cpu.data    298770545                       # number of overall hits
system.cpu.dcache.overall_hits::total       298770545                       # number of overall hits
system.cpu.dcache.ReadReq_misses::cpu.data      3375591                       # number of ReadReq misses
system.cpu.dcache.ReadReq_misses::total       3375591                       # number of ReadReq misses
system.cpu.dcache.WriteReq_misses::cpu.data      2610125                       # number of WriteReq misses
system.cpu.dcache.WriteReq_misses::total      2610125                       # number of WriteReq misses
system.cpu.dcache.SoftPFReq_misses::cpu.data        65536                       # number of SoftPFReq misses
system.cpu.dcache.SoftPFReq_misses::total        65536                       # number of SoftPFReq misses
system.cpu.dcache.demand_misses::cpu.data      5985716                       # number of demand (read+write) misses
system.cpu.dcache.demand_misses::total        5985716                       # number of demand (read+write) misses
system.cpu.dcache.overall_misses::cpu.data      6051252                       # number of overall misses
system.cpu.dcache.overall_misses::total       6051252                       # number of overall misses
system.cpu.dcache.ReadReq_miss_latency::cpu.data 201055985500                       # number of ReadReq miss cycles
system.cpu.dcache.ReadReq_miss_latency::total 201055985500                       # number of ReadReq miss cycles
system.cpu.dcache.WriteReq_miss_latency::cpu.data 191154622500                       # number of WriteReq miss cycles
system.cpu.dcache.WriteReq_miss_latency::total 191154622500                       # number of WriteReq miss cycles
system.cpu.dcache.demand_miss_latency::cpu.data 392210608000                       # number of demand (read+write) miss cycles
system.cpu.dcache.demand_miss_latency::total 392210608000                       # number of demand (read+write) miss cycles
system.cpu.dcache.overall_miss_latency::cpu.data 392210608000                       # number of overall miss cycles
system.cpu.dcache.overall_miss_latency::total 392210608000                       # number of overall miss cycles
system.cpu.dcache.ReadReq_accesses::cpu.data    228049699                       # number of ReadReq accesses(hits+misses)
system.cpu.dcache.ReadReq_accesses::total    228049699                       # number of ReadReq accesses(hits+misses)
system.cpu.dcache.WriteReq_accesses::cpu.data     76706562                       # number of WriteReq accesses(hits+misses)
system.cpu.dcache.WriteReq_accesses::total     76706562                       # number of WriteReq accesses(hits+misses)
system.cpu.dcache.SoftPFReq_accesses::cpu.data        65536                       # number of SoftPFReq accesses(hits+misses)
system.cpu.dcache.SoftPFReq_accesses::total        65536                       # number of SoftPFReq accesses(hits+misses)
system.cpu.dcache.demand_accesses::cpu.data    304756261                       # number of demand (read+write) accesses
system.cpu.dcache.demand_accesses::total    304756261                       # number of demand (read+write) accesses
system.cpu.dcache.overall_accesses::cpu.data    304821797                       # number of overall (read+write) accesses
system.cpu.dcache.overall_accesses::total    304821797                       # number of overall (read+write) accesses
system.cpu.dcache.ReadReq_miss_rate::cpu.data     0.014802                       # miss rate for ReadReq accesses
system.cpu.dcache.ReadReq_miss_rate::total     0.014802                       # miss rate for ReadReq accesses
system.cpu.dcache.WriteReq_miss_rate::cpu.data     0.034027                       # miss rate for WriteReq accesses
system.cpu.dcache.WriteReq_miss_rate::total     0.034027                       # miss rate for WriteReq accesses
system.cpu.dcache.SoftPFReq_miss_rate::cpu.data            1                       # miss rate for SoftPFReq accesses
system.cpu.dcache.SoftPFReq_miss_rate::total            1                       # miss rate for SoftPFReq accesses
system.cpu.dcache.demand_miss_rate::cpu.data     0.019641                       # miss rate for demand accesses
system.cpu.dcache.demand_miss_rate::total     0.019641                       # miss rate for demand accesses
system.cpu.dcache.overall_miss_rate::cpu.data     0.019852                       # miss rate for overall accesses
system.cpu.dcache.overall_miss_rate::total     0.019852                       # miss rate for overall accesses
system.cpu.dcache.ReadReq_avg_miss_latency::cpu.data 59561.713934                       # average ReadReq miss latency
system.cpu.dcache.ReadReq_avg_miss_latency::total 59561.713934                       # average ReadReq miss latency
system.cpu.dcache.WriteReq_avg_miss_latency::cpu.data 73235.811503                       # average WriteReq miss latency
system.cpu.dcache.WriteReq_avg_miss_latency::total 73235.811503                       # average WriteReq miss latency
system.cpu.dcache.demand_avg_miss_latency::cpu.data 65524.426485                       # average overall miss latency
system.cpu.dcache.demand_avg_miss_latency::total 65524.426485                       # average overall miss latency
system.cpu.dcache.overall_avg_miss_latency::cpu.data 64814.786758                       # average overall miss latency
system.cpu.dcache.overall_avg_miss_latency::total 64814.786758                       # average overall miss latency
system.cpu.dcache.blocked_cycles::no_mshrs            0                       # number of cycles access was blocked
system.cpu.dcache.blocked_cycles::no_targets            0                       # number of cycles access was blocked
system.cpu.dcache.blocked::no_mshrs                 0                       # number of cycles access was blocked
system.cpu.dcache.blocked::no_targets               0                       # number of cycles access was blocked
system.cpu.dcache.avg_blocked_cycles::no_mshrs          nan                       # average number of cycles each access was blocked
system.cpu.dcache.avg_blocked_cycles::no_targets          nan                       # average number of cycles each access was blocked
system.cpu.dcache.fast_writes                       0                       # number of fast writes performed
system.cpu.dcache.cache_copies                      0                       # number of cache copies performed
system.cpu.dcache.writebacks::writebacks      2958680                       # number of writebacks
system.cpu.dcache.writebacks::total           2958680                       # number of writebacks
system.cpu.dcache.ReadReq_mshr_misses::cpu.data      3375591                       # number of ReadReq MSHR misses
system.cpu.dcache.ReadReq_mshr_misses::total      3375591                       # number of ReadReq MSHR misses
system.cpu.dcache.WriteReq_mshr_misses::cpu.data      2610125                       # number of WriteReq MSHR misses
system.cpu.dcache.WriteReq_mshr_misses::total      2610125                       # number of WriteReq MSHR misses
system.cpu.dcache.SoftPFReq_mshr_misses::cpu.data        65536                       # number of SoftPFReq MSHR misses
system.cpu.dcache.SoftPFReq_mshr_misses::total        65536                       # number of SoftPFReq MSHR misses
system.cpu.dcache.demand_mshr_misses::cpu.data      5985716                       # number of demand (read+write) MSHR misses
system.cpu.dcache.demand_mshr_misses::total      5985716                       # number of demand (read+write) MSHR misses
system.cpu.dcache.overall_mshr_misses::cpu.data      6051252                       # number of overall MSHR misses
system.cpu.dcache.overall_mshr_misses::total      6051252                       # number of overall MSHR misses
system.cpu.dcache.ReadReq_mshr_miss_latency::cpu.data 197680394500                       # number of ReadReq MSHR miss cycles
system.cpu.dcache.ReadReq_mshr_miss_latency::total 197680394500                       # number of ReadReq MSHR miss cycles
system.cpu.dcache.WriteReq_mshr_miss_latency::cpu.data 188544497500                       # number of WriteReq MSHR miss cycles
system.cpu.dcache.WriteReq_mshr_miss_latency::total 188544497500                       # number of WriteReq MSHR miss cycles
system.cpu.dcache.SoftPFReq_mshr_miss_latency::cpu.data   4973304000                       # number of SoftPFReq MSHR miss cycles
system.cpu.dcache.SoftPFReq_mshr_miss_latency::total   4973304000                       # number of SoftPFReq MSHR miss cycles
system.cpu.dcache.demand_mshr_miss_latency::cpu.data 386224892000                       # number of demand (read+write) MSHR miss cycles
system.cpu.dcache.demand_mshr_miss_latency::total 386224892000                       # number of demand (read+write) MSHR miss cycles
system.cpu.dcache.overall_mshr_miss_latency::cpu.data 391198196000                       # number of overall MSHR miss cycles
system.cpu.dcache.overall_mshr_miss_latency::total 391198196000                       # number of overall MSHR miss cycles
system.cpu.dcache.ReadReq_mshr_miss_rate::cpu.data     0.014802                       # mshr miss rate for ReadReq accesses
system.cpu.dcache.ReadReq_mshr_miss_rate::total     0.014802                       # mshr miss rate for ReadReq accesses
system.cpu.dcache.WriteReq_mshr_miss_rate::cpu.data     0.034027                       # mshr miss rate for WriteReq accesses
system.cpu.dcache.WriteReq_mshr_miss_rate::total     0.034027                       # mshr miss rate for WriteReq accesses
system.cpu.dcache.SoftPFReq_mshr_miss_rate::cpu.data            1                       # mshr miss rate for SoftPFReq accesses
system.cpu.dcache.SoftPFReq_mshr_miss_rate::total            1                       # mshr miss rate for SoftPFReq accesses
system.cpu.dcache.demand_mshr_miss_rate::cpu.data     0.019641                       # mshr miss rate for demand accesses
system.cpu.dcache.demand_mshr_miss_rate::total     0.019641                       # mshr miss rate for demand accesses
system.cpu.dcache.overall_mshr_miss_rate::cpu.data     0.019852                       # mshr miss rate for overall accesses
system.cpu.dcache.overall_mshr_miss_rate::total     0.019852                       # mshr miss rate for overall accesses
system.cpu.dcache.ReadReq_avg_mshr_miss_latency::cpu.data 58561.713934                       # average ReadReq mshr miss latency
system.cpu.dcache.ReadReq_avg_mshr_miss_latency::total 58561.713934                       # average ReadReq mshr miss latency
system.cpu.dcache.WriteReq_avg_mshr_miss_latency::cpu.data 72235.811503                       # average WriteReq mshr miss latency
system.cpu.dcache.WriteReq_avg_mshr_miss_latency::total 72235.811503                       # average WriteReq mshr miss latency
system.cpu.dcache.SoftPFReq_avg_mshr_miss_latency::cpu.data 75886.596680                       # average SoftPFReq mshr miss latency
system.cpu.dcache.SoftPFReq_avg_mshr_miss_latency::total 75886.596680                       # average SoftPFReq mshr miss latency
system.cpu.dcache.demand_avg_mshr_miss_latency::cpu.data 64524.426485                       # average overall mshr miss latency
system.cpu.dcache.demand_avg_mshr_miss_latency::total 64524.426485                       # average overall mshr miss latency
system.cpu.dcache.overall_avg_mshr_miss_latency::cpu.data 64647.480554                       # average overall mshr miss latency
system.cpu.dcache.overall_avg_mshr_miss_latency::total 64647.480554                       # average overall mshr miss latency
system.cpu.dcache.no_allocate_misses                0                       # Number of misses that were no-allocate
system.cpu.dtb_walker_cache.tags.replacements            0                       # number of replacements
system.cpu.dtb_walker_cache.tags.tagsinuse            0                       # Cycle average of tags in use
system.cpu.dtb_walker_cache.tags.total_refs            0                       # Total number of references to valid blocks.
system.cpu.dtb_walker_cache.tags.sampled_refs            0                       # Sample count of references to valid blocks.
system.cpu.dtb_walker_cache.tags.avg_refs          nan                       # Average number of references to valid blocks.
system.cpu.dtb_walker_cache.tags.warmup_cycle            0                       # Cycle when the warmup percentage was hit.
system.cpu.dtb_walker_cache.tags.tag_accesses            0                       # Number of tag accesses
system.cpu.dtb_walker_cache.tags.data_accesses            0                       # Number of data accesses
system.cpu.dtb_walker_cache.blocked_cycles::no_mshrs            0                       # number of cycles access was blocked
system.cpu.dtb_walker_cache.blocked_cycles::no_targets            0                       # number of cycles access was blocked
system.cpu.dtb_walker_cache.blocked::no_mshrs            0                       # number of cycles access was blocked
system.cpu.dtb_walker_cache.blocked::no_targets            0                       # number of cycles access was blocked
system.cpu.dtb_walker_cache.avg_blocked_cycles::no_mshrs          nan                       # average number of cycles each access was blocked
system.cpu.dtb_walker_cache.avg_blocked_cycles::no_targets          nan                       # average number of cycles each access was blocked
system.cpu.dtb_walker_cache.fast_writes             0                       # number of fast writes performed
system.cpu.dtb_walker_cache.cache_copies            0                       # number of cache copies performed
system.cpu.dtb_walker_cache.no_allocate_misses            0                       # Number of misses that were no-allocate
system.cpu.icache.tags.replacements              1189                       # number of replacements
system.cpu.icache.tags.tagsinuse           695.118436                       # Cycle average of tags in use
system.cpu.icache.tags.total_refs           687816731                       # Total number of references to valid blocks.
system.cpu.icache.tags.sampled_refs              2074                       # Sample count of references to valid blocks.
system.cpu.icache.tags.avg_refs          331637.768081                       # Average number of references to valid blocks.
system.cpu.icache.tags.warmup_cycle                 0                       # Cycle when the warmup percentage was hit.
system.cpu.icache.tags.occ_blocks::cpu.inst   695.118436                       # Average occupied blocks per requestor
system.cpu.icache.tags.occ_percent::cpu.inst     0.678827                       # Average percentage of cache occupancy
system.cpu.icache.tags.occ_percent::total     0.678827                       # Average percentage of cache occupancy
system.cpu.icache.tags.occ_task_id_blocks::1024          885                       # Occupied blocks per task id
system.cpu.icache.tags.age_task_id_blocks_1024::3            5                       # Occupied blocks per task id
system.cpu.icache.tags.age_task_id_blocks_1024::4          880                       # Occupied blocks per task id
system.cpu.icache.tags.occ_task_id_percent::1024     0.864258                       # Percentage of cache occupancy per task id
system.cpu.icache.tags.tag_accesses         687820879                       # Number of tag accesses
system.cpu.icache.tags.data_accesses        687820879                       # Number of data accesses
system.cpu.icache.ReadReq_hits::cpu.inst    687816731                       # number of ReadReq hits
system.cpu.icache.ReadReq_hits::total       687816731                       # number of ReadReq hits
system.cpu.icache.demand_hits::cpu.inst     687816731                       # number of demand (read+write) hits
system.cpu.icache.demand_hits::total        687816731                       # number of demand (read+write) hits
system.cpu.icache.overall_hits::cpu.inst    687816731                       # number of overall hits
system.cpu.icache.overall_hits::total       687816731                       # number of overall hits
system.cpu.icache.ReadReq_misses::cpu.inst         2074                       # number of ReadReq misses
system.cpu.icache.ReadReq_misses::total          2074                       # number of ReadReq misses
system.cpu.icache.demand_misses::cpu.inst         2074                       # number of demand (read+write) misses
system.cpu.icache.demand_misses::total           2074                       # number of demand (read+write) misses
system.cpu.icache.overall_misses::cpu.inst         2074                       # number of overall misses
system.cpu.icache.overall_misses::total          2074                       # number of overall misses
system.cpu.icache.ReadReq_miss_latency::cpu.inst    145578000                       # number of ReadReq miss cycles
system.cpu.icache.ReadReq_miss_latency::total    145578000                       # number of ReadReq miss cycles
system.cpu.icache.demand_miss_latency::cpu.inst    145578000                       # number of demand (read+write) miss cycles
system.cpu.icache.demand_miss_latency::total    145578000                       # number of demand (read+write) miss cycles
system.cpu.icache.overall_miss_latency::cpu.inst    145578000                       # number of overall miss cycles
system.cpu.icache.overall_miss_latency::total    145578000                       # number of overall miss cycles
system.cpu.icache.ReadReq_accesses::cpu.inst    687818805                       # number of ReadReq accesses(hits+misses)
system.cpu.icache.ReadReq_accesses::total    687818805                       # number of ReadReq accesses(hits+misses)
system.cpu.icache.demand_accesses::cpu.inst    687818805                       # number of demand (read+write) accesses
system.cpu.icache.demand_accesses::total    687818805                       # number of demand (read+write) accesses
system.cpu.icache.overall_accesses::cpu.inst    687818805                       # number of overall (read+write) accesses
system.cpu.icache.overall_accesses::total    687818805                       # number of overall (read+write) accesses
system.cpu.icache.ReadReq_miss_rate::cpu.inst     0.000003                       # miss rate for ReadReq accesses
system.cpu.icache.ReadReq_miss_rate::total     0.000003                       # miss rate for ReadReq accesses
system.cpu.icache.demand_miss_rate::cpu.inst     0.000003                       # miss rate for demand accesses
system.cpu.icache.demand_miss_rate::total     0.000003                       # miss rate for demand accesses
system.cpu.icache.overall_miss_rate::cpu.inst     0.000003                       # miss rate for overall accesses
system.cpu.icache.overall_miss_rate::total     0.000003                       # miss rate for overall accesses
system.cpu.icache.ReadReq_avg_miss_latency::cpu.inst 70191.899711                       # average ReadReq miss latency
system.cpu.icache.ReadReq_avg_miss_latency::total 70191.899711                       # average ReadReq miss latency
system.cpu.icache.demand_avg_miss_latency::cpu.inst 70191.899711                       # average overall miss latency
system.cpu.icache.demand_avg_miss_latency::total 70191.899711                       # average overall miss latency
system.cpu.icache.overall_avg_miss_latency::cpu.inst 70191.899711                       # average overall miss latency
system.cpu.icache.overall_avg_miss_latency::total 70191.899711                       # average overall miss latency
system.cpu.icache.blocked_cycles::no_mshrs            0                       # number of cycles access was blocked
system.cpu.icache.blocked_cycles::no_targets            0                       # number of cycles access was blocked
system.cpu.icache.blocked::no_mshrs                 0                       # number of cycles access was blocked
system.cpu.icache.blocked::no_targets               0                       # number of cycles access was blocked
system.cpu.icache.avg_blocked_cycles::no_mshrs          nan                       # average number of cycles each access was blocked
system.cpu.icache.avg_blocked_cycles::no_targets          nan                       # average number of cycles each access was blocked
system.cpu.icache.fast_writes                       0                       # number of fast writes performed
system.cpu.icache.cache_copies                      0                       # number of cache copies performed
system.cpu.icache.writebacks::writebacks         1189                       # number of writebacks
system.cpu.icache.writebacks::total              1189                       # number of writebacks
system.cpu.icache.ReadReq_mshr_misses::cpu.inst         2074                       # number of ReadReq MSHR misses
system.cpu.icache.ReadReq_mshr_misses::total         2074                       # number of ReadReq MSHR misses
system.cpu.icache.demand_mshr_misses::cpu.inst         2074                       # number of demand (read+write) MSHR misses
system.cpu.icache.demand_mshr_misses::total         2074                       # number of demand (read+write) MSHR misses
system.cpu.icache.overall_mshr_misses::cpu.inst         2074                       # number of overall MSHR misses
system.cpu.icache.overall_mshr_misses::total         2074                       # number of overall MSHR misses
system.cpu.icache.ReadReq_mshr_miss_latency::cpu.inst    143504000                       # number of ReadReq MSHR miss cycles
system.cpu.icache.ReadReq_mshr_miss_latency::total    143504000                       # number of ReadReq MSHR miss cycles
system.cpu.icache.demand_mshr_miss_latency::cpu.inst    143504000                       # number of demand (read+write) MSHR miss cycles
system.cpu.icache.demand_mshr_miss_latency::total    143504000                       # number of demand (read+write) MSHR miss cycles
system.cpu.icache.overall_mshr_miss_latency::cpu.inst    143504000                       # number of overall MSHR miss cycles
system.cpu.icache.overall_mshr_miss_latency::total    143504000                       # number of overall MSHR miss cycles
system.cpu.icache.ReadReq_mshr_miss_rate::cpu.inst     0.000003                       # mshr miss rate for ReadReq accesses
system.cpu.icache.ReadReq_mshr_miss_rate::total     0.000003                       # mshr miss rate for ReadReq accesses
system.cpu.icache.demand_mshr_miss_rate::cpu.inst     0.000003                       # mshr miss rate for demand accesses
system.cpu.icache.demand_mshr_miss_rate::total     0.000003                       # mshr miss rate for demand accesses
system.cpu.icache.overall_mshr_miss_rate::cpu.inst     0.000003                       # mshr miss rate for overall accesses
system.cpu.icache.overall_mshr_miss_rate::total     0.000003                       # mshr miss rate for overall accesses
system.cpu.icache.ReadReq_avg_mshr_miss_latency::cpu.inst 69191.899711                       # average ReadReq mshr miss latency
system.cpu.icache.ReadReq_avg_mshr_miss_latency::total 69191.899711                       # average ReadReq mshr miss latency
system.cpu.icache.demand_avg_mshr_miss_latency::cpu.inst 69191.899711                       # average overall mshr miss latency
system.cpu.icache.demand_avg_mshr_miss_latency::total 69191.899711                       # average overall mshr miss latency
system.cpu.icache.overall_avg_mshr_miss_latency::cpu.inst 69191.899711                       # average overall mshr miss latency
system.cpu.icache.overall_avg_mshr_miss_latency::total 69191.899711                       # average overall mshr miss latency
system.cpu.icache.no_allocate_misses                0                       # Number of misses that were no-allocate
system.cpu.itb_walker_cache.tags.replacements            0                       # number of replacements
system.cpu.itb_walker_cache.tags.tagsinuse            0                       # Cycle average of tags in use
system.cpu.itb_walker_cache.tags.total_refs            0                       # Total number of references to valid blocks.
system.cpu.itb_walker_cache.tags.sampled_refs            0                       # Sample count of references to valid blocks.
system.cpu.itb_walker_cache.tags.avg_refs          nan                       # Average number of references to valid blocks.
system.cpu.itb_walker_cache.tags.warmup_cycle            0                       # Cycle when the warmup percentage was hit.
system.cpu.itb_walker_cache.tags.tag_accesses            0                       # Number of tag accesses
system.cpu.itb_walker_cache.tags.data_accesses            0                       # Number of data accesses
system.cpu.itb_walker_cache.blocked_cycles::no_mshrs            0                       # number of cycles access was blocked
system.cpu.itb_walker_cache.blocked_cycles::no_targets            0                       # number of cycles access was blocked
system.cpu.itb_walker_cache.blocked::no_mshrs            0                       # number of cycles access was blocked
system.cpu.itb_walker_cache.blocked::no_targets            0                       # number of cycles access was blocked
system.cpu.itb_walker_cache.avg_blocked_cycles::no_mshrs          nan                       # average number of cycles each access was blocked
system.cpu.itb_walker_cache.avg_blocked_cycles::no_targets          nan                       # average number of cycles each access was blocked
system.cpu.itb_walker_cache.fast_writes             0                       # number of fast writes performed
system.cpu.itb_walker_cache.cache_copies            0                       # number of cache copies performed
system.cpu.itb_walker_cache.no_allocate_misses            0                       # Number of misses that were no-allocate
system.l2.tags.replacements                   4878380                       # number of replacements
system.l2.tags.tagsinuse                 30766.206354                       # Cycle average of tags in use
system.l2.tags.total_refs                     4455288                       # Total number of references to valid blocks.
system.l2.tags.sampled_refs                   4910795                       # Sample count of references to valid blocks.
system.l2.tags.avg_refs                      0.907244                       # Average number of references to valid blocks.
system.l2.tags.warmup_cycle              467161532500                       # Cycle when the warmup percentage was hit.
system.l2.tags.occ_blocks::writebacks    14962.564494                       # Average occupied blocks per requestor
system.l2.tags.occ_blocks::cpu.inst         12.931987                       # Average occupied blocks per requestor
system.l2.tags.occ_blocks::cpu.data      15790.709873                       # Average occupied blocks per requestor
system.l2.tags.occ_percent::writebacks       0.456621                       # Average percentage of cache occupancy
system.l2.tags.occ_percent::cpu.inst         0.000395                       # Average percentage of cache occupancy
system.l2.tags.occ_percent::cpu.data         0.481894                       # Average percentage of cache occupancy
system.l2.tags.occ_percent::total            0.938910                       # Average percentage of cache occupancy
system.l2.tags.occ_task_id_blocks::1024         32415                       # Occupied blocks per task id
system.l2.tags.age_task_id_blocks_1024::2            1                       # Occupied blocks per task id
system.l2.tags.age_task_id_blocks_1024::3           46                       # Occupied blocks per task id
system.l2.tags.age_task_id_blocks_1024::4        32368                       # Occupied blocks per task id
system.l2.tags.occ_task_id_percent::1024     0.989227                       # Percentage of cache occupancy per task id
system.l2.tags.tag_accesses                  19622590                       # Number of tag accesses
system.l2.tags.data_accesses                 19622590                       # Number of data accesses
system.l2.WritebackDirty_hits::writebacks      2958680                       # number of WritebackDirty hits
system.l2.WritebackDirty_hits::total          2958680                       # number of WritebackDirty hits
system.l2.WritebackClean_hits::writebacks         1189                       # number of WritebackClean hits
system.l2.WritebackClean_hits::total             1189                       # number of WritebackClean hits
system.l2.ReadExReq_hits::cpu.data             239997                       # number of ReadExReq hits
system.l2.ReadExReq_hits::total                239997                       # number of ReadExReq hits
system.l2.ReadCleanReq_hits::cpu.inst             234                       # number of ReadCleanReq hits
system.l2.ReadCleanReq_hits::total                234                       # number of ReadCleanReq hits
system.l2.ReadSharedReq_hits::cpu.data         927055                       # number of ReadSharedReq hits
system.l2.ReadSharedReq_hits::total            927055                       # number of ReadSharedReq hits
system.l2.demand_hits::cpu.inst                   234                       # number of demand (read+write) hits
system.l2.demand_hits::cpu.data               1167052                       # number of demand (read+write) hits
system.l2.demand_hits::total                  1167286                       # number of demand (read+write) hits
system.l2.overall_hits::cpu.inst                  234                       # number of overall hits
system.l2.overall_hits::cpu.data              1167052                       # number of overall hits
system.l2.overall_hits::total                 1167286                       # number of overall hits
system.l2.ReadExReq_misses::cpu.data          2370128                       # number of ReadExReq misses
system.l2.ReadExReq_misses::total             2370128                       # number of ReadExReq misses
system.l2.ReadCleanReq_misses::cpu.inst          1840                       # number of ReadCleanReq misses
system.l2.ReadCleanReq_misses::total             1840                       # number of ReadCleanReq misses
system.l2.ReadSharedReq_misses::cpu.data      2514072                       # number of ReadSharedReq misses
system.l2.ReadSharedReq_misses::total         2514072                       # number of ReadSharedReq misses
system.l2.demand_misses::cpu.inst                1840                       # number of demand (read+write) misses
system.l2.demand_misses::cpu.data             4884200                       # number of demand (read+write) misses
system.l2.demand_misses::total                4886040                       # number of demand (read+write) misses
system.l2.overall_misses::cpu.inst               1840                       # number of overall misses
system.l2.overall_misses::cpu.data            4884200                       # number of overall misses
system.l2.overall_misses::total               4886040                       # number of overall misses
system.l2.ReadExReq_miss_latency::cpu.data 182109341500                       # number of ReadExReq miss cycles
system.l2.ReadExReq_miss_latency::total  182109341500                       # number of ReadExReq miss cycles
system.l2.ReadCleanReq_miss_latency::cpu.inst    137935000                       # number of ReadCleanReq miss cycles
system.l2.ReadCleanReq_miss_latency::total    137935000                       # number of ReadCleanReq miss cycles
system.l2.ReadSharedReq_miss_latency::cpu.data 187757930500                       # number of ReadSharedReq miss cycles
system.l2.ReadSharedReq_miss_latency::total 187757930500                       # number of ReadSharedReq miss cycles
system.l2.demand_miss_latency::cpu.inst     137935000                       # number of demand (read+write) miss cycles
system.l2.demand_miss_latency::cpu.data  369867272000                       # number of demand (read+write) miss cycles
system.l2.demand_miss_latency::total     370005207000                       # number of demand (read+write) miss cycles
system.l2.overall_miss_latency::cpu.inst    137935000                       # number of overall miss cycles
system.l2.overall_miss_latency::cpu.data 369867272000                       # number of overall miss cycles
system.l2.overall_miss_latency::total    370005207000                       # number of overall miss cycles
system.l2.WritebackDirty_accesses::writebacks      2958680                       # number of WritebackDirty accesses(hits+misses)
system.l2.WritebackDirty_accesses::total      2958680                       # number of WritebackDirty accesses(hits+misses)
system.l2.WritebackClean_accesses::writebacks         1189                       # number of WritebackClean accesses(hits+misses)
system.l2.WritebackClean_accesses::total         1189                       # number of WritebackClean accesses(hits+misses)
system.l2.ReadExReq_accesses::cpu.data        2610125                       # number of ReadExReq accesses(hits+misses)
system.l2.ReadExReq_accesses::total           2610125                       # number of ReadExReq accesses(hits+misses)
system.l2.ReadCleanReq_accesses::cpu.inst         2074                       # number of ReadCleanReq accesses(hits+misses)
system.l2.ReadCleanReq_accesses::total           2074                       # number of ReadCleanReq accesses(hits+misses)
system.l2.ReadSharedReq_accesses::cpu.data      3441127                       # number of ReadSharedReq accesses(hits+misses)
system.l2.ReadSharedReq_accesses::total       3441127                       # number of ReadSharedReq accesses(hits+misses)
system.l2.demand_accesses::cpu.inst              2074                       # number of demand (read+write) accesses
system.l2.demand_accesses::cpu.data           6051252                       # number of demand (read+write) accesses
system.l2.demand_accesses::total              6053326                       # number of demand (read+write) accesses
system.l2.overall_accesses::cpu.inst             2074                       # number of overall (read+write) accesses
system.l2.overall_accesses::cpu.data          6051252                       # number of overall (read+write) accesses
system.l2.overall_accesses::total             6053326                       # number of overall (read+write) accesses
system.l2.ReadExReq_miss_rate::cpu.data      0.908052                       # miss rate for ReadExReq accesses
system.l2.ReadExReq_miss_rate::total         0.908052                       # miss rate for ReadExReq accesses
system.l2.ReadCleanReq_miss_rate::cpu.inst     0.887175                       # miss rate for ReadCleanReq accesses
system.l2.ReadCleanReq_miss_rate::total      0.887175                       # miss rate for ReadCleanReq accesses
system.l2.ReadSharedReq_miss_rate::cpu.data     0.730596                       # miss rate for ReadSharedReq accesses
system.l2.ReadSharedReq_miss_rate::total     0.730596                       # miss rate for ReadSharedReq accesses
system.l2.demand_miss_rate::cpu.inst         0.887175                       # miss rate for demand accesses
system.l2.demand_miss_rate::cpu.data         0.807139                       # miss rate for demand accesses
system.l2.demand_miss_rate::total            0.807166                       # miss rate for demand accesses
system.l2.overall_miss_rate::cpu.inst        0.887175                       # miss rate for overall accesses
system.l2.overall_miss_rate::cpu.data        0.807139                       # miss rate for overall accesses
system.l2.overall_miss_rate::total           0.807166                       # miss rate for overall accesses
system.l2.ReadExReq_avg_miss_latency::cpu.data 76835.234848                       # average ReadExReq miss latency
system.l2.ReadExReq_avg_miss_latency::total 76835.234848                       # average ReadExReq miss latency
system.l2.ReadCleanReq_avg_miss_latency::cpu.inst 74964.673913                       # average ReadCleanReq miss latency
system.l2.ReadCleanReq_avg_miss_latency::total 74964.673913                       # average ReadCleanReq miss latency
system.l2.ReadSharedReq_avg_miss_latency::cpu.data 74682.797668                       # average ReadSharedReq miss latency
system.l2.ReadSharedReq_avg_miss_latency::total 74682.797668                       # average ReadSharedReq miss latency
system.l2.demand_avg_miss_latency::cpu.inst 74964.673913                       # average overall miss latency
system.l2.demand_avg_miss_latency::cpu.data 75727.298636                       # average overall miss latency
system.l2.demand_avg_miss_latency::total 75727.011445                       # average overall miss latency
system.l2.overall_avg_miss_latency::cpu.inst 74964.673913                       # average overall miss latency
system.l2.overall_avg_miss_latency::cpu.data 75727.298636                       # average overall miss latency
system.l2.overall_avg_miss_latency::total 75727.011445                       # average overall miss latency
system.l2.blocked_cycles::no_mshrs                  0                       # number of cycles access was blocked
system.l2.blocked_cycles::no_targets                0                       # number of cycles access was blocked
system.l2.blocked::no_mshrs                         0                       # number of cycles access was blocked
system.l2.blocked::no_targets                       0                       # number of cycles access was blocked
system.l2.avg_blocked_cycles::no_mshrs            nan                       # average number of cycles each access was blocked
system.l2.avg_blocked_cycles::no_targets          nan                       # average number of cycles each access was blocked
system.l2.fast_writes                               0                       # number of fast writes performed
system.l2.cache_copies                              0                       # number of cache copies performed
system.l2.writebacks::writebacks              2494583                       # number of writebacks
system.l2.writebacks::total                   2494583                       # number of writebacks
system.l2.CleanEvict_mshr_misses::writebacks       125074                       # number of CleanEvict MSHR misses
system.l2.CleanEvict_mshr_misses::total        125074                       # number of CleanEvict MSHR misses
system.l2.ReadExReq_mshr_misses::cpu.data      2370128                       # number of ReadExReq MSHR misses
system.l2.ReadExReq_mshr_misses::total        2370128                       # number of ReadExReq MSHR misses
system.l2.ReadCleanReq_mshr_misses::cpu.inst         1840                       # number of ReadCleanReq MSHR misses
system.l2.ReadCleanReq_mshr_misses::total         1840                       # number of ReadCleanReq MSHR misses
system.l2.ReadSharedReq_mshr_misses::cpu.data      2514072                       # number of ReadSharedReq MSHR misses
system.l2.ReadSharedReq_mshr_misses::total      2514072                       # number of ReadSharedReq MSHR misses
system.l2.demand_mshr_misses::cpu.inst           1840                       # number of demand (read+write) MSHR misses
system.l2.demand_mshr_misses::cpu.data        4884200                       # number of demand (read+write) MSHR misses
system.l2.demand_mshr_misses::total           4886040                       # number of demand (read+write) MSHR misses
system.l2.overall_mshr_misses::cpu.inst          1840                       # number of overall MSHR misses
system.l2.overall_mshr_misses::cpu.data       4884200                       # number of overall MSHR misses
system.l2.overall_mshr_misses::total          4886040                       # number of overall MSHR misses
system.l2.ReadExReq_mshr_miss_latency::cpu.data 158408061500                       # number of ReadExReq MSHR miss cycles
system.l2.ReadExReq_mshr_miss_latency::total 158408061500                       # number of ReadExReq MSHR miss cycles
system.l2.ReadCleanReq_mshr_miss_latency::cpu.inst    119535000                       # number of ReadCleanReq MSHR miss cycles
system.l2.ReadCleanReq_mshr_miss_latency::total    119535000                       # number of ReadCleanReq MSHR miss cycles
system.l2.ReadSharedReq_mshr_miss_latency::cpu.data 162617210500                       # number of ReadSharedReq MSHR miss cycles
system.l2.ReadSharedReq_mshr_miss_latency::total 162617210500                       # number of ReadSharedReq MSHR miss cycles
system.l2.demand_mshr_miss_latency::cpu.inst    119535000                       # number of demand (read+write) MSHR miss cycles
system.l2.demand_mshr_miss_latency::cpu.data 321025272000                       # number of demand (read+write) MSHR miss cycles
system.l2.demand_mshr_miss_latency::total 321144807000                       # number of demand (read+write) MSHR miss cycles
system.l2.overall_mshr_miss_latency::cpu.inst    119535000                       # number of overall MSHR miss cycles
system.l2.overall_mshr_miss_latency::cpu.data 321025272000                       # number of overall MSHR miss cycles
system.l2.overall_mshr_miss_latency::total 321144807000                       # number of overall MSHR miss cycles
system.l2.CleanEvict_mshr_miss_rate::writebacks          inf                       # mshr miss rate for CleanEvict accesses
system.l2.CleanEvict_mshr_miss_rate::total          inf                       # mshr miss rate for CleanEvict accesses
system.l2.ReadExReq_mshr_miss_rate::cpu.data     0.908052                       # mshr miss rate for ReadExReq accesses
system.l2.ReadExReq_mshr_miss_rate::total     0.908052                       # mshr miss rate for ReadExReq accesses
system.l2.ReadCleanReq_mshr_miss_rate::cpu.inst     0.887175                       # mshr miss rate for ReadCleanReq accesses
system.l2.ReadCleanReq_mshr_miss_rate::total     0.887175                       # mshr miss rate for ReadCleanReq accesses
system.l2.ReadSharedReq_mshr_miss_rate::cpu.data     0.730596                       # mshr miss rate for ReadSharedReq accesses
system.l2.ReadSharedReq_mshr_miss_rate::total     0.730596                       # mshr miss rate for ReadSharedReq accesses
system.l2.demand_mshr_miss_rate::cpu.inst     0.887175                       # mshr miss rate for demand accesses
system.l2.demand_mshr_miss_rate::cpu.data     0.807139                       # mshr miss rate for demand accesses
system.l2.demand_mshr_miss_rate::total       0.807166                       # mshr miss rate for demand accesses
system.l2.overall_mshr_miss_rate::cpu.inst     0.887175                       # mshr miss rate for overall accesses
system.l2.overall_mshr_miss_rate::cpu.data     0.807139                       # mshr miss rate for overall accesses
system.l2.overall_mshr_miss_rate::total      0.807166                       # mshr miss rate for overall accesses
system.l2.ReadExReq_avg_mshr_miss_latency::cpu.data 66835.234848                       # average ReadExReq mshr miss latency
system.l2.ReadExReq_avg_mshr_miss_latency::total 66835.234848                       # average ReadExReq mshr miss latency
system.l2.ReadCleanReq_avg_mshr_miss_latency::cpu.inst 64964.673913                       # average ReadCleanReq mshr miss latency
system.l2.ReadCleanReq_avg_mshr_miss_latency::total 64964.673913                       # average ReadCleanReq mshr miss latency
system.l2.ReadSharedReq_avg_mshr_miss_latency::cpu.data 64682.797668                       # average ReadSharedReq mshr miss latency
system.l2.ReadSharedReq_avg_mshr_miss_latency::total 64682.797668                       # average ReadSharedReq mshr miss latency
system.l2.demand_avg_mshr_miss_latency::cpu.inst 64964.673913                       # average overall mshr miss latency
system.l2.demand_avg_mshr_miss_latency::cpu.data 65727.298636                       # average overall mshr miss latency
system.l2.demand_avg_mshr_miss_latency::total 65727.011445                       # average overall mshr miss latency
system.l2.overall_avg_mshr_miss_latency::cpu.inst 64964.673913                       # average overall mshr miss latency
system.l2.overall_avg_mshr_miss_latency::cpu.data 65727.298636                       # average overall mshr miss latency
system.l2.overall_avg_mshr_miss_latency::total 65727.011445                       # average overall mshr miss latency
system.l2.no_allocate_misses                        0                       # Number of misses that were no-allocate
system.membus.trans_dist::ReadResp            2515912                       # Transaction distribution
system.membus.trans_dist::WritebackDirty      2494583                       # Transaction distribution
system.membus.trans_dist::CleanEvict          2357657                       # Transaction distribution
system.membus.trans_dist::ReadExReq           2370128                       # Transaction distribution
system.membus.trans_dist::ReadExResp          2370128                       # Transaction distribution
system.membus.trans_dist::ReadSharedReq       2515912                       # Transaction distribution
system.membus.pkt_count_system.l2.mem_side::system.mem_ctrls.port     14624320                       # Packet count per connected master and slave (bytes)
system.membus.pkt_count_system.l2.mem_side::total     14624320                       # Packet count per connected master and slave (bytes)
system.membus.pkt_count::total               14624320                       # Packet count per connected master and slave (bytes)
system.membus.pkt_size_system.l2.mem_side::system.mem_ctrls.port    236179936                       # Cumulative packet size per connected master and slave (bytes)
system.membus.pkt_size_system.l2.mem_side::total    236179936                       # Cumulative packet size per connected master and slave (bytes)
system.membus.pkt_size::total               236179936                       # Cumulative packet size per connected master and slave (bytes)
system.membus.snoops                                0                       # Total snoops (count)
system.membus.snoop_fanout::samples           9738280                       # Request fanout histogram
system.membus.snoop_fanout::mean                    0                       # Request fanout histogram
system.membus.snoop_fanout::stdev                   0                       # Request fanout histogram
system.membus.snoop_fanout::underflows              0      0.00%      0.00% # Request fanout histogram
system.membus.snoop_fanout::0                 9738280    100.00%    100.00% # Request fanout histogram
system.membus.snoop_fanout::1                       0      0.00%    100.00% # Request fanout histogram
system.membus.snoop_fanout::overflows               0      0.00%    100.00% # Request fanout histogram
system.membus.snoop_fanout::min_value               0                       # Request fanout histogram
system.membus.snoop_fanout::max_value               0                       # Request fanout histogram
system.membus.snoop_fanout::total             9738280                       # Request fanout histogram
system.membus.reqLayer2.occupancy         14727450000                       # Layer occupancy (ticks)
system.membus.reqLayer2.utilization               1.1                       # Layer utilization (%)
system.membus.respLayer1.occupancy        16120980000                       # Layer occupancy (ticks)
system.membus.respLayer1.utilization              1.2                       # Layer utilization (%)
system.tol2bus.snoop_filter.tot_requests     12101671                       # Total number of requests made to the snoop filter.
system.tol2bus.snoop_filter.hit_single_requests      6048345                       # Number of requests hitting in the snoop filter with a single holder of the requested data.
system.tol2bus.snoop_filter.hit_multi_requests            1                       # Number of requests hitting in the snoop filter with multiple (>1) holders of the requested data.
system.tol2bus.snoop_filter.tot_snoops         151214                       # Total number of snoops made to the snoop filter.
system.tol2bus.snoop_filter.hit_single_snoops       151214                       # Number of snoops hitting in the snoop filter with a single holder of the requested data.
system.tol2bus.snoop_filter.hit_multi_snoops            0                       # Number of snoops hitting in the snoop filter with multiple (>1) holders of the requested data.
system.tol2bus.trans_dist::ReadResp           3443201                       # Transaction distribution
system.tol2bus.trans_dist::WritebackDirty      5453263                       # Transaction distribution
system.tol2bus.trans_dist::WritebackClean         1189                       # Transaction distribution
system.tol2bus.trans_dist::CleanEvict         5472272                       # Transaction distribution
system.tol2bus.trans_dist::ReadExReq          2610125                       # Transaction distribution
system.tol2bus.trans_dist::ReadExResp         2610125                       # Transaction distribution
system.tol2bus.trans_dist::ReadCleanReq          2074                       # Transaction distribution
system.tol2bus.trans_dist::ReadSharedReq      3441127                       # Transaction distribution
system.tol2bus.pkt_count_system.cpu.icache.mem_side::system.l2.cpu_side         5337                       # Packet count per connected master and slave (bytes)
system.tol2bus.pkt_count_system.cpu.dcache.mem_side::system.l2.cpu_side     18149659                       # Packet count per connected master and slave (bytes)
system.tol2bus.pkt_count::total              18154996                       # Packet count per connected master and slave (bytes)
system.tol2bus.pkt_size_system.cpu.icache.mem_side::system.l2.cpu_side       104416                       # Cumulative packet size per connected master and slave (bytes)
system.tol2bus.pkt_size_system.cpu.dcache.mem_side::system.l2.cpu_side    288317824                       # Cumulative packet size per connected master and slave (bytes)
system.tol2bus.pkt_size::total              288422240                       # Cumulative packet size per connected master and slave (bytes)
system.tol2bus.snoops                         4878380                       # Total snoops (count)
system.tol2bus.snoop_fanout::samples         10931706                       # Request fanout histogram
system.tol2bus.snoop_fanout::mean            0.013833                       # Request fanout histogram
system.tol2bus.snoop_fanout::stdev           0.116796                       # Request fanout histogram
system.tol2bus.snoop_fanout::underflows             0      0.00%      0.00% # Request fanout histogram
system.tol2bus.snoop_fanout::0               10780491     98.62%     98.62% # Request fanout histogram
system.tol2bus.snoop_fanout::1                 151215      1.38%    100.00% # Request fanout histogram
system.tol2bus.snoop_fanout::2                      0      0.00%    100.00% # Request fanout histogram
system.tol2bus.snoop_fanout::3                      0      0.00%    100.00% # Request fanout histogram
system.tol2bus.snoop_fanout::4                      0      0.00%    100.00% # Request fanout histogram
system.tol2bus.snoop_fanout::overflows              0      0.00%    100.00% # Request fanout histogram
system.tol2bus.snoop_fanout::min_value              0                       # Request fanout histogram
system.tol2bus.snoop_fanout::max_value              1                       # Request fanout histogram
system.tol2bus.snoop_fanout::total           10931706                       # Request fanout histogram
system.tol2bus.reqLayer0.occupancy         7530770000                       # Layer occupancy (ticks)
system.tol2bus.reqLayer0.utilization              0.5                       # Layer utilization (%)
system.tol2bus.respLayer0.occupancy           2074000                       # Layer occupancy (ticks)
system.tol2bus.respLayer0.utilization             0.0                       # Layer utilization (%)
system.tol2bus.respLayer1.occupancy        6051252000                       # Layer occupancy (ticks)
system.tol2bus.respLayer1.utilization             0.4                       # Layer utilization (%)

---------- End Simulation Statistics   ----------
