
---------- Begin Simulation Statistics ---------
sim_seconds                                  1.229671                       # Number of seconds simulated
sim_ticks                                1229671147500                       # Number of ticks simulated
final_tick                               1229671147500                       # Number of ticks from beginning of simulation (restored from checkpoints and never reset)
sim_freq                                 1000000000000                       # Frequency of simulated ticks
host_inst_rate                                 697493                       # Simulator instruction rate (inst/s)
host_op_rate                                  1016857                       # Simulator op (including micro ops) rate (op/s)
host_tick_rate                             1715372956                       # Simulator tick rate (ticks/s)
host_mem_usage                                 832960                       # Number of bytes of host memory used
host_seconds                                   716.85                       # Real time elapsed on the host
sim_insts                                   500000001                       # Number of instructions simulated
sim_ops                                     728937824                       # Number of ops (including micro ops) simulated
system.voltage_domain.voltage                       1                       # Voltage in Volts
system.clk_domain.clock                          1000                       # Clock period in ticks
system.mem_ctrls.bytes_read::cpu.inst           65344                       # Number of bytes read from this memory
system.mem_ctrls.bytes_read::cpu.data       175810816                       # Number of bytes read from this memory
system.mem_ctrls.bytes_read::total          175876160                       # Number of bytes read from this memory
system.mem_ctrls.bytes_inst_read::cpu.inst        65344                       # Number of instructions bytes read from this memory
system.mem_ctrls.bytes_inst_read::total         65344                       # Number of instructions bytes read from this memory
system.mem_ctrls.bytes_written::writebacks     92955776                       # Number of bytes written to this memory
system.mem_ctrls.bytes_written::total        92955776                       # Number of bytes written to this memory
system.mem_ctrls.num_reads::cpu.inst             1021                       # Number of read requests responded to by this memory
system.mem_ctrls.num_reads::cpu.data          2747044                       # Number of read requests responded to by this memory
system.mem_ctrls.num_reads::total             2748065                       # Number of read requests responded to by this memory
system.mem_ctrls.num_writes::writebacks       1452434                       # Number of write requests responded to by this memory
system.mem_ctrls.num_writes::total            1452434                       # Number of write requests responded to by this memory
system.mem_ctrls.bw_read::cpu.inst              53139                       # Total read bandwidth from this memory (bytes/s)
system.mem_ctrls.bw_read::cpu.data          142973848                       # Total read bandwidth from this memory (bytes/s)
system.mem_ctrls.bw_read::total             143026988                       # Total read bandwidth from this memory (bytes/s)
system.mem_ctrls.bw_inst_read::cpu.inst         53139                       # Instruction read bandwidth from this memory (bytes/s)
system.mem_ctrls.bw_inst_read::total            53139                       # Instruction read bandwidth from this memory (bytes/s)
system.mem_ctrls.bw_write::writebacks        75594012                       # Write bandwidth from this memory (bytes/s)
system.mem_ctrls.bw_write::total             75594012                       # Write bandwidth from this memory (bytes/s)
system.mem_ctrls.bw_total::writebacks        75594012                       # Total bandwidth to/from this memory (bytes/s)
system.mem_ctrls.bw_total::cpu.inst             53139                       # Total bandwidth to/from this memory (bytes/s)
system.mem_ctrls.bw_total::cpu.data         142973848                       # Total bandwidth to/from this memory (bytes/s)
system.mem_ctrls.bw_total::total            218621000                       # Total bandwidth to/from this memory (bytes/s)
system.mem_ctrls.readReqs                     2748065                       # Number of read requests accepted
system.mem_ctrls.writeReqs                    1452434                       # Number of write requests accepted
system.mem_ctrls.readBursts                   2748065                       # Number of DRAM read bursts, including those serviced by the write queue
system.mem_ctrls.writeBursts                  1452434                       # Number of DRAM write bursts, including those merged in the write queue
system.mem_ctrls.bytesReadDRAM              175692544                       # Total number of bytes read from DRAM
system.mem_ctrls.bytesReadWrQ                  183616                       # Total number of bytes read from write queue
system.mem_ctrls.bytesWritten                92941632                       # Total number of bytes written to DRAM
system.mem_ctrls.bytesReadSys               175876160                       # Total read bytes from the system interface side
system.mem_ctrls.bytesWrittenSys             92955776                       # Total written bytes from the system interface side
system.mem_ctrls.servicedByWrQ                   2869                       # Number of DRAM read bursts serviced by the write queue
system.mem_ctrls.mergedWrBursts                   199                       # Number of DRAM write bursts merged with an existing one
system.mem_ctrls.neitherReadNorWriteReqs      1278750                       # Number of requests that are neither read nor write
system.mem_ctrls.perBankRdBursts::0            173457                       # Per bank write bursts
system.mem_ctrls.perBankRdBursts::1            171947                       # Per bank write bursts
system.mem_ctrls.perBankRdBursts::2            172668                       # Per bank write bursts
system.mem_ctrls.perBankRdBursts::3            169423                       # Per bank write bursts
system.mem_ctrls.perBankRdBursts::4            169472                       # Per bank write bursts
system.mem_ctrls.perBankRdBursts::5            168884                       # Per bank write bursts
system.mem_ctrls.perBankRdBursts::6            171006                       # Per bank write bursts
system.mem_ctrls.perBankRdBursts::7            170005                       # Per bank write bursts
system.mem_ctrls.perBankRdBursts::8            167793                       # Per bank write bursts
system.mem_ctrls.perBankRdBursts::9            168049                       # Per bank write bursts
system.mem_ctrls.perBankRdBursts::10           171571                       # Per bank write bursts
system.mem_ctrls.perBankRdBursts::11           171901                       # Per bank write bursts
system.mem_ctrls.perBankRdBursts::12           174711                       # Per bank write bursts
system.mem_ctrls.perBankRdBursts::13           173921                       # Per bank write bursts
system.mem_ctrls.perBankRdBursts::14           174234                       # Per bank write bursts
system.mem_ctrls.perBankRdBursts::15           176154                       # Per bank write bursts
system.mem_ctrls.perBankWrBursts::0             91698                       # Per bank write bursts
system.mem_ctrls.perBankWrBursts::1             91080                       # Per bank write bursts
system.mem_ctrls.perBankWrBursts::2             92563                       # Per bank write bursts
system.mem_ctrls.perBankWrBursts::3             90095                       # Per bank write bursts
system.mem_ctrls.perBankWrBursts::4             89645                       # Per bank write bursts
system.mem_ctrls.perBankWrBursts::5             88947                       # Per bank write bursts
system.mem_ctrls.perBankWrBursts::6             90422                       # Per bank write bursts
system.mem_ctrls.perBankWrBursts::7             90269                       # Per bank write bursts
system.mem_ctrls.perBankWrBursts::8             89286                       # Per bank write bursts
system.mem_ctrls.perBankWrBursts::9             89383                       # Per bank write bursts
system.mem_ctrls.perBankWrBursts::10            90708                       # Per bank write bursts
system.mem_ctrls.perBankWrBursts::11            90413                       # Per bank write bursts
system.mem_ctrls.perBankWrBursts::12            91159                       # Per bank write bursts
system.mem_ctrls.perBankWrBursts::13            91377                       # Per bank write bursts
system.mem_ctrls.perBankWrBursts::14            91725                       # Per bank write bursts
system.mem_ctrls.perBankWrBursts::15            93443                       # Per bank write bursts
system.mem_ctrls.numRdRetry                         0                       # Number of times read queue was full causing retry
system.mem_ctrls.numWrRetry                         0                       # Number of times write queue was full causing retry
system.mem_ctrls.totGap                  1228546079500                       # Total gap between requests
system.mem_ctrls.readPktSize::0                     0                       # Read request sizes (log2)
system.mem_ctrls.readPktSize::1                     0                       # Read request sizes (log2)
system.mem_ctrls.readPktSize::2                     0                       # Read request sizes (log2)
system.mem_ctrls.readPktSize::3                     0                       # Read request sizes (log2)
system.mem_ctrls.readPktSize::4                     0                       # Read request sizes (log2)
system.mem_ctrls.readPktSize::5                     0                       # Read request sizes (log2)
system.mem_ctrls.readPktSize::6               2748065                       # Read request sizes (log2)
system.mem_ctrls.writePktSize::0                    0                       # Write request sizes (log2)
system.mem_ctrls.writePktSize::1                    0                       # Write request sizes (log2)
system.mem_ctrls.writePktSize::2                    0                       # Write request sizes (log2)
system.mem_ctrls.writePktSize::3                    0                       # Write request sizes (log2)
system.mem_ctrls.writePktSize::4                    0                       # Write request sizes (log2)
system.mem_ctrls.writePktSize::5                    0                       # Write request sizes (log2)
system.mem_ctrls.writePktSize::6              1452434                       # Write request sizes (log2)
system.mem_ctrls.rdQLenPdf::0                 2710031                       # What read queue length does an incoming req see
system.mem_ctrls.rdQLenPdf::1                   30895                       # What read queue length does an incoming req see
system.mem_ctrls.rdQLenPdf::2                    2396                       # What read queue length does an incoming req see
system.mem_ctrls.rdQLenPdf::3                    1874                       # What read queue length does an incoming req see
system.mem_ctrls.rdQLenPdf::4                       0                       # What read queue length does an incoming req see
system.mem_ctrls.rdQLenPdf::5                       0                       # What read queue length does an incoming req see
system.mem_ctrls.rdQLenPdf::6                       0                       # What read queue length does an incoming req see
system.mem_ctrls.rdQLenPdf::7                       0                       # What read queue length does an incoming req see
system.mem_ctrls.rdQLenPdf::8                       0                       # What read queue length does an incoming req see
system.mem_ctrls.rdQLenPdf::9                       0                       # What read queue length does an incoming req see
system.mem_ctrls.rdQLenPdf::10                      0                       # What read queue length does an incoming req see
system.mem_ctrls.rdQLenPdf::11                      0                       # What read queue length does an incoming req see
system.mem_ctrls.rdQLenPdf::12                      0                       # What read queue length does an incoming req see
system.mem_ctrls.rdQLenPdf::13                      0                       # What read queue length does an incoming req see
system.mem_ctrls.rdQLenPdf::14                      0                       # What read queue length does an incoming req see
system.mem_ctrls.rdQLenPdf::15                      0                       # What read queue length does an incoming req see
system.mem_ctrls.rdQLenPdf::16                      0                       # What read queue length does an incoming req see
system.mem_ctrls.rdQLenPdf::17                      0                       # What read queue length does an incoming req see
system.mem_ctrls.rdQLenPdf::18                      0                       # What read queue length does an incoming req see
system.mem_ctrls.rdQLenPdf::19                      0                       # What read queue length does an incoming req see
system.mem_ctrls.rdQLenPdf::20                      0                       # What read queue length does an incoming req see
system.mem_ctrls.rdQLenPdf::21                      0                       # What read queue length does an incoming req see
system.mem_ctrls.rdQLenPdf::22                      0                       # What read queue length does an incoming req see
system.mem_ctrls.rdQLenPdf::23                      0                       # What read queue length does an incoming req see
system.mem_ctrls.rdQLenPdf::24                      0                       # What read queue length does an incoming req see
system.mem_ctrls.rdQLenPdf::25                      0                       # What read queue length does an incoming req see
system.mem_ctrls.rdQLenPdf::26                      0                       # What read queue length does an incoming req see
system.mem_ctrls.rdQLenPdf::27                      0                       # What read queue length does an incoming req see
system.mem_ctrls.rdQLenPdf::28                      0                       # What read queue length does an incoming req see
system.mem_ctrls.rdQLenPdf::29                      0                       # What read queue length does an incoming req see
system.mem_ctrls.rdQLenPdf::30                      0                       # What read queue length does an incoming req see
system.mem_ctrls.rdQLenPdf::31                      0                       # What read queue length does an incoming req see
system.mem_ctrls.wrQLenPdf::0                       1                       # What write queue length does an incoming req see
system.mem_ctrls.wrQLenPdf::1                       1                       # What write queue length does an incoming req see
system.mem_ctrls.wrQLenPdf::2                       1                       # What write queue length does an incoming req see
system.mem_ctrls.wrQLenPdf::3                       1                       # What write queue length does an incoming req see
system.mem_ctrls.wrQLenPdf::4                       1                       # What write queue length does an incoming req see
system.mem_ctrls.wrQLenPdf::5                       1                       # What write queue length does an incoming req see
system.mem_ctrls.wrQLenPdf::6                       1                       # What write queue length does an incoming req see
system.mem_ctrls.wrQLenPdf::7                       1                       # What write queue length does an incoming req see
system.mem_ctrls.wrQLenPdf::8                       1                       # What write queue length does an incoming req see
system.mem_ctrls.wrQLenPdf::9                       1                       # What write queue length does an incoming req see
system.mem_ctrls.wrQLenPdf::10                      1                       # What write queue length does an incoming req see
system.mem_ctrls.wrQLenPdf::11                      1                       # What write queue length does an incoming req see
system.mem_ctrls.wrQLenPdf::12                      1                       # What write queue length does an incoming req see
system.mem_ctrls.wrQLenPdf::13                      1                       # What write queue length does an incoming req see
system.mem_ctrls.wrQLenPdf::14                      1                       # What write queue length does an incoming req see
system.mem_ctrls.wrQLenPdf::15                  15364                       # What write queue length does an incoming req see
system.mem_ctrls.wrQLenPdf::16                  16140                       # What write queue length does an incoming req see
system.mem_ctrls.wrQLenPdf::17                  87852                       # What write queue length does an incoming req see
system.mem_ctrls.wrQLenPdf::18                  88391                       # What write queue length does an incoming req see
system.mem_ctrls.wrQLenPdf::19                  88696                       # What write queue length does an incoming req see
system.mem_ctrls.wrQLenPdf::20                  88794                       # What write queue length does an incoming req see
system.mem_ctrls.wrQLenPdf::21                  88899                       # What write queue length does an incoming req see
system.mem_ctrls.wrQLenPdf::22                  89074                       # What write queue length does an incoming req see
system.mem_ctrls.wrQLenPdf::23                  88951                       # What write queue length does an incoming req see
system.mem_ctrls.wrQLenPdf::24                  89020                       # What write queue length does an incoming req see
system.mem_ctrls.wrQLenPdf::25                  88803                       # What write queue length does an incoming req see
system.mem_ctrls.wrQLenPdf::26                  88805                       # What write queue length does an incoming req see
system.mem_ctrls.wrQLenPdf::27                  88823                       # What write queue length does an incoming req see
system.mem_ctrls.wrQLenPdf::28                  88826                       # What write queue length does an incoming req see
system.mem_ctrls.wrQLenPdf::29                  89223                       # What write queue length does an incoming req see
system.mem_ctrls.wrQLenPdf::30                  88789                       # What write queue length does an incoming req see
system.mem_ctrls.wrQLenPdf::31                  88982                       # What write queue length does an incoming req see
system.mem_ctrls.wrQLenPdf::32                  88782                       # What write queue length does an incoming req see
system.mem_ctrls.wrQLenPdf::33                      5                       # What write queue length does an incoming req see
system.mem_ctrls.wrQLenPdf::34                      1                       # What write queue length does an incoming req see
system.mem_ctrls.wrQLenPdf::35                      0                       # What write queue length does an incoming req see
system.mem_ctrls.wrQLenPdf::36                      0                       # What write queue length does an incoming req see
system.mem_ctrls.wrQLenPdf::37                      0                       # What write queue length does an incoming req see
system.mem_ctrls.wrQLenPdf::38                      0                       # What write queue length does an incoming req see
system.mem_ctrls.wrQLenPdf::39                      0                       # What write queue length does an incoming req see
system.mem_ctrls.wrQLenPdf::40                      0                       # What write queue length does an incoming req see
system.mem_ctrls.wrQLenPdf::41                      0                       # What write queue length does an incoming req see
system.mem_ctrls.wrQLenPdf::42                      0                       # What write queue length does an incoming req see
system.mem_ctrls.wrQLenPdf::43                      0                       # What write queue length does an incoming req see
system.mem_ctrls.wrQLenPdf::44                      0                       # What write queue length does an incoming req see
system.mem_ctrls.wrQLenPdf::45                      0                       # What write queue length does an incoming req see
system.mem_ctrls.wrQLenPdf::46                      0                       # What write queue length does an incoming req see
system.mem_ctrls.wrQLenPdf::47                      0                       # What write queue length does an incoming req see
system.mem_ctrls.wrQLenPdf::48                      0                       # What write queue length does an incoming req see
system.mem_ctrls.wrQLenPdf::49                      0                       # What write queue length does an incoming req see
system.mem_ctrls.wrQLenPdf::50                      0                       # What write queue length does an incoming req see
system.mem_ctrls.wrQLenPdf::51                      0                       # What write queue length does an incoming req see
system.mem_ctrls.wrQLenPdf::52                      0                       # What write queue length does an incoming req see
system.mem_ctrls.wrQLenPdf::53                      0                       # What write queue length does an incoming req see
system.mem_ctrls.wrQLenPdf::54                      0                       # What write queue length does an incoming req see
system.mem_ctrls.wrQLenPdf::55                      0                       # What write queue length does an incoming req see
system.mem_ctrls.wrQLenPdf::56                      0                       # What write queue length does an incoming req see
system.mem_ctrls.wrQLenPdf::57                      0                       # What write queue length does an incoming req see
system.mem_ctrls.wrQLenPdf::58                      0                       # What write queue length does an incoming req see
system.mem_ctrls.wrQLenPdf::59                      0                       # What write queue length does an incoming req see
system.mem_ctrls.wrQLenPdf::60                      0                       # What write queue length does an incoming req see
system.mem_ctrls.wrQLenPdf::61                      0                       # What write queue length does an incoming req see
system.mem_ctrls.wrQLenPdf::62                      0                       # What write queue length does an incoming req see
system.mem_ctrls.wrQLenPdf::63                      0                       # What write queue length does an incoming req see
system.mem_ctrls.bytesPerActivate::samples       850954                       # Bytes accessed per row activation
system.mem_ctrls.bytesPerActivate::mean    315.685896                       # Bytes accessed per row activation
system.mem_ctrls.bytesPerActivate::gmean   168.159363                       # Bytes accessed per row activation
system.mem_ctrls.bytesPerActivate::stdev   356.088902                       # Bytes accessed per row activation
system.mem_ctrls.bytesPerActivate::0-127       412505     48.48%     48.48% # Bytes accessed per row activation
system.mem_ctrls.bytesPerActivate::128-255       132032     15.52%     63.99% # Bytes accessed per row activation
system.mem_ctrls.bytesPerActivate::256-383        37081      4.36%     68.35% # Bytes accessed per row activation
system.mem_ctrls.bytesPerActivate::384-511        31081      3.65%     72.00% # Bytes accessed per row activation
system.mem_ctrls.bytesPerActivate::512-639        75186      8.84%     80.84% # Bytes accessed per row activation
system.mem_ctrls.bytesPerActivate::640-767        10900      1.28%     82.12% # Bytes accessed per row activation
system.mem_ctrls.bytesPerActivate::768-895         8183      0.96%     83.08% # Bytes accessed per row activation
system.mem_ctrls.bytesPerActivate::896-1023        10183      1.20%     84.28% # Bytes accessed per row activation
system.mem_ctrls.bytesPerActivate::1024-1151       133803     15.72%    100.00% # Bytes accessed per row activation
system.mem_ctrls.bytesPerActivate::total       850954                       # Bytes accessed per row activation
system.mem_ctrls.rdPerTurnAround::samples        88780                       # Reads before turning the bus around for writes
system.mem_ctrls.rdPerTurnAround::mean      30.920804                       # Reads before turning the bus around for writes
system.mem_ctrls.rdPerTurnAround::gmean     27.656682                       # Reads before turning the bus around for writes
system.mem_ctrls.rdPerTurnAround::stdev     84.975657                       # Reads before turning the bus around for writes
system.mem_ctrls.rdPerTurnAround::0-511         88725     99.94%     99.94% # Reads before turning the bus around for writes
system.mem_ctrls.rdPerTurnAround::512-1023           42      0.05%     99.99% # Reads before turning the bus around for writes
system.mem_ctrls.rdPerTurnAround::1024-1535            4      0.00%     99.99% # Reads before turning the bus around for writes
system.mem_ctrls.rdPerTurnAround::1536-2047            1      0.00%     99.99% # Reads before turning the bus around for writes
system.mem_ctrls.rdPerTurnAround::2048-2559            1      0.00%     99.99% # Reads before turning the bus around for writes
system.mem_ctrls.rdPerTurnAround::5120-5631            2      0.00%     99.99% # Reads before turning the bus around for writes
system.mem_ctrls.rdPerTurnAround::6656-7167            1      0.00%    100.00% # Reads before turning the bus around for writes
system.mem_ctrls.rdPerTurnAround::8704-9215            1      0.00%    100.00% # Reads before turning the bus around for writes
system.mem_ctrls.rdPerTurnAround::10752-11263            1      0.00%    100.00% # Reads before turning the bus around for writes
system.mem_ctrls.rdPerTurnAround::11264-11775            1      0.00%    100.00% # Reads before turning the bus around for writes
system.mem_ctrls.rdPerTurnAround::11776-12287            1      0.00%    100.00% # Reads before turning the bus around for writes
system.mem_ctrls.rdPerTurnAround::total         88780                       # Reads before turning the bus around for writes
system.mem_ctrls.wrPerTurnAround::samples        88780                       # Writes before turning the bus around for reads
system.mem_ctrls.wrPerTurnAround::mean      16.357434                       # Writes before turning the bus around for reads
system.mem_ctrls.wrPerTurnAround::gmean     16.340425                       # Writes before turning the bus around for reads
system.mem_ctrls.wrPerTurnAround::stdev      0.765286                       # Writes before turning the bus around for reads
system.mem_ctrls.wrPerTurnAround::16            72628     81.81%     81.81% # Writes before turning the bus around for reads
system.mem_ctrls.wrPerTurnAround::17              776      0.87%     82.68% # Writes before turning the bus around for reads
system.mem_ctrls.wrPerTurnAround::18            15182     17.10%     99.78% # Writes before turning the bus around for reads
system.mem_ctrls.wrPerTurnAround::19              187      0.21%     99.99% # Writes before turning the bus around for reads
system.mem_ctrls.wrPerTurnAround::20                4      0.00%    100.00% # Writes before turning the bus around for reads
system.mem_ctrls.wrPerTurnAround::21                2      0.00%    100.00% # Writes before turning the bus around for reads
system.mem_ctrls.wrPerTurnAround::22                1      0.00%    100.00% # Writes before turning the bus around for reads
system.mem_ctrls.wrPerTurnAround::total         88780                       # Writes before turning the bus around for reads
system.mem_ctrls.totQLat                  25541701500                       # Total ticks spent queuing
system.mem_ctrls.totMemAccLat             77014126500                       # Total ticks spent from burst creation until serviced by the DRAM
system.mem_ctrls.totBusLat                13725980000                       # Total ticks spent in databus transfers
system.mem_ctrls.avgQLat                      9304.14                       # Average queueing delay per DRAM burst
system.mem_ctrls.avgBusLat                    5000.00                       # Average bus latency per DRAM burst
system.mem_ctrls.avgMemAccLat                28054.14                       # Average memory access latency per DRAM burst
system.mem_ctrls.avgRdBW                       142.88                       # Average DRAM read bandwidth in MiByte/s
system.mem_ctrls.avgWrBW                        75.58                       # Average achieved write bandwidth in MiByte/s
system.mem_ctrls.avgRdBWSys                    143.03                       # Average system read bandwidth in MiByte/s
system.mem_ctrls.avgWrBWSys                     75.59                       # Average system write bandwidth in MiByte/s
system.mem_ctrls.peakBW                      12800.00                       # Theoretical peak bandwidth in MiByte/s
system.mem_ctrls.busUtil                         1.71                       # Data bus utilization in percentage
system.mem_ctrls.busUtilRead                     1.12                       # Data bus utilization in percentage for reads
system.mem_ctrls.busUtilWrite                    0.59                       # Data bus utilization in percentage for writes
system.mem_ctrls.avgRdQLen                       1.00                       # Average read queue length when enqueuing
system.mem_ctrls.avgWrQLen                      25.16                       # Average write queue length when enqueuing
system.mem_ctrls.readRowHits                  2165529                       # Number of row buffer hits during reads
system.mem_ctrls.writeRowHits                 1180926                       # Number of row buffer hits during writes
system.mem_ctrls.readRowHitRate                 78.88                       # Row buffer hit rate for reads
system.mem_ctrls.writeRowHitRate                81.32                       # Row buffer hit rate for writes
system.mem_ctrls.avgGap                     292476.22                       # Average gap between requests
system.mem_ctrls.pageHitRate                    79.73                       # Row buffer hit rate, read and write combined
system.mem_ctrls_0.actEnergy               3181512600                       # Energy for activate commands per rank (pJ)
system.mem_ctrls_0.preEnergy               1735944375                       # Energy for precharge commands per rank (pJ)
system.mem_ctrls_0.readEnergy             10661523600                       # Energy for read commands per rank (pJ)
system.mem_ctrls_0.writeEnergy             4696179120                       # Energy for write commands per rank (pJ)
system.mem_ctrls_0.refreshEnergy          80315863680                       # Energy for refresh commands per rank (pJ)
system.mem_ctrls_0.actBackEnergy         331143593895                       # Energy for active background per rank (pJ)
system.mem_ctrls_0.preBackEnergy         447323445000                       # Energy for precharge background per rank (pJ)
system.mem_ctrls_0.totalEnergy           879058062270                       # Total energy per rank (pJ)
system.mem_ctrls_0.averagePower            714.874812                       # Core power per rank (mW)
system.mem_ctrls_0.memoryStateTime::IDLE 741744113500                       # Time in different power states
system.mem_ctrls_0.memoryStateTime::REF   41061280000                       # Time in different power states
system.mem_ctrls_0.memoryStateTime::PRE_PDN            0                       # Time in different power states
system.mem_ctrls_0.memoryStateTime::ACT  446861756500                       # Time in different power states
system.mem_ctrls_0.memoryStateTime::ACT_PDN            0                       # Time in different power states
system.mem_ctrls_1.actEnergy               3251699640                       # Energy for activate commands per rank (pJ)
system.mem_ctrls_1.preEnergy               1774240875                       # Energy for precharge commands per rank (pJ)
system.mem_ctrls_1.readEnergy             10751005200                       # Energy for read commands per rank (pJ)
system.mem_ctrls_1.writeEnergy             4714161120                       # Energy for write commands per rank (pJ)
system.mem_ctrls_1.refreshEnergy          80315863680                       # Energy for refresh commands per rank (pJ)
system.mem_ctrls_1.actBackEnergy         335587566690                       # Energy for active background per rank (pJ)
system.mem_ctrls_1.preBackEnergy         443425223250                       # Energy for precharge background per rank (pJ)
system.mem_ctrls_1.totalEnergy           879819760455                       # Total energy per rank (pJ)
system.mem_ctrls_1.averagePower            715.494246                       # Core power per rank (mW)
system.mem_ctrls_1.memoryStateTime::IDLE 735218941500                       # Time in different power states
system.mem_ctrls_1.memoryStateTime::REF   41061280000                       # Time in different power states
system.mem_ctrls_1.memoryStateTime::PRE_PDN            0                       # Time in different power states
system.mem_ctrls_1.memoryStateTime::ACT  453386928500                       # Time in different power states
system.mem_ctrls_1.memoryStateTime::ACT_PDN            0                       # Time in different power states
system.cpu_voltage_domain.voltage                   1                       # Voltage in Volts
system.cpu_clk_domain.clock                       500                       # Clock period in ticks
system.cpu.apic_clk_domain.clock                 8000                       # Clock period in ticks
system.cpu.workload.num_syscalls                   89                       # Number of system calls
system.cpu.numCycles                       2459342295                       # number of cpu cycles simulated
system.cpu.numWorkItemsStarted                      0                       # number of work items this cpu started
system.cpu.numWorkItemsCompleted                    0                       # number of work items this cpu completed
system.cpu.committedInsts                   500000001                       # Number of instructions committed
system.cpu.committedOps                     728937824                       # Number of ops (including micro ops) committed
system.cpu.num_int_alu_accesses             727310589                       # Number of integer alu accesses
system.cpu.num_fp_alu_accesses                    843                       # Number of float alu accesses
system.cpu.num_func_calls                     1427761                       # number of times a function call or return occured
system.cpu.num_conditional_control_insts     32105501                       # number of instructions that are conditional controls
system.cpu.num_int_insts                    727310589                       # number of integer instructions
system.cpu.num_fp_insts                           843                       # number of float instructions
system.cpu.num_int_register_reads          1714991297                       # number of times the integer registers were read
system.cpu.num_int_register_writes          612733141                       # number of times the integer registers were written
system.cpu.num_fp_register_reads                 1319                       # number of times the floating registers were read
system.cpu.num_fp_register_writes                 577                       # number of times the floating registers were written
system.cpu.num_cc_register_reads            181720629                       # number of times the CC registers were read
system.cpu.num_cc_register_writes           264518979                       # number of times the CC registers were written
system.cpu.num_mem_refs                     304821783                       # number of memory refs
system.cpu.num_load_insts                   228115222                       # Number of load instructions
system.cpu.num_store_insts                   76706561                       # Number of store instructions
system.cpu.num_idle_cycles                          0                       # Number of idle cycles
system.cpu.num_busy_cycles                 2459342295                       # Number of busy cycles
system.cpu.not_idle_fraction                        1                       # Percentage of non-idle cycles
system.cpu.idle_fraction                            0                       # Percentage of idle cycles
system.cpu.Branches                          38073397                       # Number of branches fetched
system.cpu.op_class::No_OpClass                960306      0.13%      0.13% # Class of executed instruction
system.cpu.op_class::IntAlu                 423024114     58.03%     58.16% # Class of executed instruction
system.cpu.op_class::IntMult                   130951      0.02%     58.18% # Class of executed instruction
system.cpu.op_class::IntDiv                       140      0.00%     58.18% # Class of executed instruction
system.cpu.op_class::FloatAdd                     530      0.00%     58.18% # Class of executed instruction
system.cpu.op_class::FloatCmp                       0      0.00%     58.18% # Class of executed instruction
system.cpu.op_class::FloatCvt                       0      0.00%     58.18% # Class of executed instruction
system.cpu.op_class::FloatMult                      0      0.00%     58.18% # Class of executed instruction
system.cpu.op_class::FloatDiv                       0      0.00%     58.18% # Class of executed instruction
system.cpu.op_class::FloatSqrt                      0      0.00%     58.18% # Class of executed instruction
system.cpu.op_class::SimdAdd                        0      0.00%     58.18% # Class of executed instruction
system.cpu.op_class::SimdAddAcc                     0      0.00%     58.18% # Class of executed instruction
system.cpu.op_class::SimdAlu                        0      0.00%     58.18% # Class of executed instruction
system.cpu.op_class::SimdCmp                        0      0.00%     58.18% # Class of executed instruction
system.cpu.op_class::SimdCvt                        0      0.00%     58.18% # Class of executed instruction
system.cpu.op_class::SimdMisc                       0      0.00%     58.18% # Class of executed instruction
system.cpu.op_class::SimdMult                       0      0.00%     58.18% # Class of executed instruction
system.cpu.op_class::SimdMultAcc                    0      0.00%     58.18% # Class of executed instruction
system.cpu.op_class::SimdShift                      0      0.00%     58.18% # Class of executed instruction
system.cpu.op_class::SimdShiftAcc                   0      0.00%     58.18% # Class of executed instruction
system.cpu.op_class::SimdSqrt                       0      0.00%     58.18% # Class of executed instruction
system.cpu.op_class::SimdFloatAdd                   0      0.00%     58.18% # Class of executed instruction
system.cpu.op_class::SimdFloatAlu                   0      0.00%     58.18% # Class of executed instruction
system.cpu.op_class::SimdFloatCmp                   0      0.00%     58.18% # Class of executed instruction
system.cpu.op_class::SimdFloatCvt                   0      0.00%     58.18% # Class of executed instruction
system.cpu.op_class::SimdFloatDiv                   0      0.00%     58.18% # Class of executed instruction
system.cpu.op_class::SimdFloatMisc                  0      0.00%     58.18% # Class of executed instruction
system.cpu.op_class::SimdFloatMult                  0      0.00%     58.18% # Class of executed instruction
system.cpu.op_class::SimdFloatMultAcc               0      0.00%     58.18% # Class of executed instruction
system.cpu.op_class::SimdFloatSqrt                  0      0.00%     58.18% # Class of executed instruction
system.cpu.op_class::MemRead                228115222     31.29%     89.48% # Class of executed instruction
system.cpu.op_class::MemWrite                76706561     10.52%    100.00% # Class of executed instruction
system.cpu.op_class::IprAccess                      0      0.00%    100.00% # Class of executed instruction
system.cpu.op_class::InstPrefetch                   0      0.00%    100.00% # Class of executed instruction
system.cpu.op_class::total                  728937824                       # Class of executed instruction
system.cpu.dcache.tags.replacements           4750314                       # number of replacements
system.cpu.dcache.tags.tagsinuse           506.243770                       # Cycle average of tags in use
system.cpu.dcache.tags.total_refs           300070967                       # Total number of references to valid blocks.
system.cpu.dcache.tags.sampled_refs           4750826                       # Sample count of references to valid blocks.
system.cpu.dcache.tags.avg_refs             63.161852                       # Average number of references to valid blocks.
system.cpu.dcache.tags.warmup_cycle       21683732500                       # Cycle when the warmup percentage was hit.
system.cpu.dcache.tags.occ_blocks::cpu.data   506.243770                       # Average occupied blocks per requestor
system.cpu.dcache.tags.occ_percent::cpu.data     0.988757                       # Average percentage of cache occupancy
system.cpu.dcache.tags.occ_percent::total     0.988757                       # Average percentage of cache occupancy
system.cpu.dcache.tags.occ_task_id_blocks::1024          512                       # Occupied blocks per task id
system.cpu.dcache.tags.age_task_id_blocks_1024::0            3                       # Occupied blocks per task id
system.cpu.dcache.tags.age_task_id_blocks_1024::1           25                       # Occupied blocks per task id
system.cpu.dcache.tags.age_task_id_blocks_1024::2          253                       # Occupied blocks per task id
system.cpu.dcache.tags.age_task_id_blocks_1024::3          117                       # Occupied blocks per task id
system.cpu.dcache.tags.age_task_id_blocks_1024::4          114                       # Occupied blocks per task id
system.cpu.dcache.tags.occ_task_id_percent::1024            1                       # Percentage of cache occupancy per task id
system.cpu.dcache.tags.tag_accesses        1224037998                       # Number of tag accesses
system.cpu.dcache.tags.data_accesses       1224037998                       # Number of data accesses
system.cpu.dcache.ReadReq_hits::cpu.data    225095553                       # number of ReadReq hits
system.cpu.dcache.ReadReq_hits::total       225095553                       # number of ReadReq hits
system.cpu.dcache.WriteReq_hits::cpu.data     74975414                       # number of WriteReq hits
system.cpu.dcache.WriteReq_hits::total       74975414                       # number of WriteReq hits
system.cpu.dcache.demand_hits::cpu.data     300070967                       # number of demand (read+write) hits
system.cpu.dcache.demand_hits::total        300070967                       # number of demand (read+write) hits
system.cpu.dcache.overall_hits::cpu.data    300070967                       # number of overall hits
system.cpu.dcache.overall_hits::total       300070967                       # number of overall hits
system.cpu.dcache.ReadReq_misses::cpu.data      2954143                       # number of ReadReq misses
system.cpu.dcache.ReadReq_misses::total       2954143                       # number of ReadReq misses
system.cpu.dcache.WriteReq_misses::cpu.data      1731147                       # number of WriteReq misses
system.cpu.dcache.WriteReq_misses::total      1731147                       # number of WriteReq misses
system.cpu.dcache.SoftPFReq_misses::cpu.data        65536                       # number of SoftPFReq misses
system.cpu.dcache.SoftPFReq_misses::total        65536                       # number of SoftPFReq misses
system.cpu.dcache.demand_misses::cpu.data      4685290                       # number of demand (read+write) misses
system.cpu.dcache.demand_misses::total        4685290                       # number of demand (read+write) misses
system.cpu.dcache.overall_misses::cpu.data      4750826                       # number of overall misses
system.cpu.dcache.overall_misses::total       4750826                       # number of overall misses
system.cpu.dcache.ReadReq_miss_latency::cpu.data 125954335000                       # number of ReadReq miss cycles
system.cpu.dcache.ReadReq_miss_latency::total 125954335000                       # number of ReadReq miss cycles
system.cpu.dcache.WriteReq_miss_latency::cpu.data 115109122000                       # number of WriteReq miss cycles
system.cpu.dcache.WriteReq_miss_latency::total 115109122000                       # number of WriteReq miss cycles
system.cpu.dcache.demand_miss_latency::cpu.data 241063457000                       # number of demand (read+write) miss cycles
system.cpu.dcache.demand_miss_latency::total 241063457000                       # number of demand (read+write) miss cycles
system.cpu.dcache.overall_miss_latency::cpu.data 241063457000                       # number of overall miss cycles
system.cpu.dcache.overall_miss_latency::total 241063457000                       # number of overall miss cycles
system.cpu.dcache.ReadReq_accesses::cpu.data    228049696                       # number of ReadReq accesses(hits+misses)
system.cpu.dcache.ReadReq_accesses::total    228049696                       # number of ReadReq accesses(hits+misses)
system.cpu.dcache.WriteReq_accesses::cpu.data     76706561                       # number of WriteReq accesses(hits+misses)
system.cpu.dcache.WriteReq_accesses::total     76706561                       # number of WriteReq accesses(hits+misses)
system.cpu.dcache.SoftPFReq_accesses::cpu.data        65536                       # number of SoftPFReq accesses(hits+misses)
system.cpu.dcache.SoftPFReq_accesses::total        65536                       # number of SoftPFReq accesses(hits+misses)
system.cpu.dcache.demand_accesses::cpu.data    304756257                       # number of demand (read+write) accesses
system.cpu.dcache.demand_accesses::total    304756257                       # number of demand (read+write) accesses
system.cpu.dcache.overall_accesses::cpu.data    304821793                       # number of overall (read+write) accesses
system.cpu.dcache.overall_accesses::total    304821793                       # number of overall (read+write) accesses
system.cpu.dcache.ReadReq_miss_rate::cpu.data     0.012954                       # miss rate for ReadReq accesses
system.cpu.dcache.ReadReq_miss_rate::total     0.012954                       # miss rate for ReadReq accesses
system.cpu.dcache.WriteReq_miss_rate::cpu.data     0.022568                       # miss rate for WriteReq accesses
system.cpu.dcache.WriteReq_miss_rate::total     0.022568                       # miss rate for WriteReq accesses
system.cpu.dcache.SoftPFReq_miss_rate::cpu.data            1                       # miss rate for SoftPFReq accesses
system.cpu.dcache.SoftPFReq_miss_rate::total            1                       # miss rate for SoftPFReq accesses
system.cpu.dcache.demand_miss_rate::cpu.data     0.015374                       # miss rate for demand accesses
system.cpu.dcache.demand_miss_rate::total     0.015374                       # miss rate for demand accesses
system.cpu.dcache.overall_miss_rate::cpu.data     0.015586                       # miss rate for overall accesses
system.cpu.dcache.overall_miss_rate::total     0.015586                       # miss rate for overall accesses
system.cpu.dcache.ReadReq_avg_miss_latency::cpu.data 42636.505748                       # average ReadReq miss latency
system.cpu.dcache.ReadReq_avg_miss_latency::total 42636.505748                       # average ReadReq miss latency
system.cpu.dcache.WriteReq_avg_miss_latency::cpu.data 66492.979510                       # average WriteReq miss latency
system.cpu.dcache.WriteReq_avg_miss_latency::total 66492.979510                       # average WriteReq miss latency
system.cpu.dcache.demand_avg_miss_latency::cpu.data 51451.128319                       # average overall miss latency
system.cpu.dcache.demand_avg_miss_latency::total 51451.128319                       # average overall miss latency
system.cpu.dcache.overall_avg_miss_latency::cpu.data 50741.377815                       # average overall miss latency
system.cpu.dcache.overall_avg_miss_latency::total 50741.377815                       # average overall miss latency
system.cpu.dcache.blocked_cycles::no_mshrs      1204434                       # number of cycles access was blocked
system.cpu.dcache.blocked_cycles::no_targets            0                       # number of cycles access was blocked
system.cpu.dcache.blocked::no_mshrs             20026                       # number of cycles access was blocked
system.cpu.dcache.blocked::no_targets               0                       # number of cycles access was blocked
system.cpu.dcache.avg_blocked_cycles::no_mshrs    60.143513                       # average number of cycles each access was blocked
system.cpu.dcache.avg_blocked_cycles::no_targets          nan                       # average number of cycles each access was blocked
system.cpu.dcache.fast_writes                       0                       # number of fast writes performed
system.cpu.dcache.cache_copies                      0                       # number of cache copies performed
system.cpu.dcache.writebacks::writebacks      2309692                       # number of writebacks
system.cpu.dcache.writebacks::total           2309692                       # number of writebacks
system.cpu.dcache.ReadReq_mshr_misses::cpu.data      2954143                       # number of ReadReq MSHR misses
system.cpu.dcache.ReadReq_mshr_misses::total      2954143                       # number of ReadReq MSHR misses
system.cpu.dcache.WriteReq_mshr_misses::cpu.data      1731147                       # number of WriteReq MSHR misses
system.cpu.dcache.WriteReq_mshr_misses::total      1731147                       # number of WriteReq MSHR misses
system.cpu.dcache.SoftPFReq_mshr_misses::cpu.data        65536                       # number of SoftPFReq MSHR misses
system.cpu.dcache.SoftPFReq_mshr_misses::total        65536                       # number of SoftPFReq MSHR misses
system.cpu.dcache.demand_mshr_misses::cpu.data      4685290                       # number of demand (read+write) MSHR misses
system.cpu.dcache.demand_mshr_misses::total      4685290                       # number of demand (read+write) MSHR misses
system.cpu.dcache.overall_mshr_misses::cpu.data      4750826                       # number of overall MSHR misses
system.cpu.dcache.overall_mshr_misses::total      4750826                       # number of overall MSHR misses
system.cpu.dcache.ReadReq_mshr_miss_latency::cpu.data 123000192000                       # number of ReadReq MSHR miss cycles
system.cpu.dcache.ReadReq_mshr_miss_latency::total 123000192000                       # number of ReadReq MSHR miss cycles
system.cpu.dcache.WriteReq_mshr_miss_latency::cpu.data 113377975000                       # number of WriteReq MSHR miss cycles
system.cpu.dcache.WriteReq_mshr_miss_latency::total 113377975000                       # number of WriteReq MSHR miss cycles
system.cpu.dcache.SoftPFReq_mshr_miss_latency::cpu.data   5617976445                       # number of SoftPFReq MSHR miss cycles
system.cpu.dcache.SoftPFReq_mshr_miss_latency::total   5617976445                       # number of SoftPFReq MSHR miss cycles
system.cpu.dcache.demand_mshr_miss_latency::cpu.data 236378167000                       # number of demand (read+write) MSHR miss cycles
system.cpu.dcache.demand_mshr_miss_latency::total 236378167000                       # number of demand (read+write) MSHR miss cycles
system.cpu.dcache.overall_mshr_miss_latency::cpu.data 241996143445                       # number of overall MSHR miss cycles
system.cpu.dcache.overall_mshr_miss_latency::total 241996143445                       # number of overall MSHR miss cycles
system.cpu.dcache.ReadReq_mshr_miss_rate::cpu.data     0.012954                       # mshr miss rate for ReadReq accesses
system.cpu.dcache.ReadReq_mshr_miss_rate::total     0.012954                       # mshr miss rate for ReadReq accesses
system.cpu.dcache.WriteReq_mshr_miss_rate::cpu.data     0.022568                       # mshr miss rate for WriteReq accesses
system.cpu.dcache.WriteReq_mshr_miss_rate::total     0.022568                       # mshr miss rate for WriteReq accesses
system.cpu.dcache.SoftPFReq_mshr_miss_rate::cpu.data            1                       # mshr miss rate for SoftPFReq accesses
system.cpu.dcache.SoftPFReq_mshr_miss_rate::total            1                       # mshr miss rate for SoftPFReq accesses
system.cpu.dcache.demand_mshr_miss_rate::cpu.data     0.015374                       # mshr miss rate for demand accesses
system.cpu.dcache.demand_mshr_miss_rate::total     0.015374                       # mshr miss rate for demand accesses
system.cpu.dcache.overall_mshr_miss_rate::cpu.data     0.015586                       # mshr miss rate for overall accesses
system.cpu.dcache.overall_mshr_miss_rate::total     0.015586                       # mshr miss rate for overall accesses
system.cpu.dcache.ReadReq_avg_mshr_miss_latency::cpu.data 41636.505748                       # average ReadReq mshr miss latency
system.cpu.dcache.ReadReq_avg_mshr_miss_latency::total 41636.505748                       # average ReadReq mshr miss latency
system.cpu.dcache.WriteReq_avg_mshr_miss_latency::cpu.data 65492.979510                       # average WriteReq mshr miss latency
system.cpu.dcache.WriteReq_avg_mshr_miss_latency::total 65492.979510                       # average WriteReq mshr miss latency
system.cpu.dcache.SoftPFReq_avg_mshr_miss_latency::cpu.data 85723.517532                       # average SoftPFReq mshr miss latency
system.cpu.dcache.SoftPFReq_avg_mshr_miss_latency::total 85723.517532                       # average SoftPFReq mshr miss latency
system.cpu.dcache.demand_avg_mshr_miss_latency::cpu.data 50451.128319                       # average overall mshr miss latency
system.cpu.dcache.demand_avg_mshr_miss_latency::total 50451.128319                       # average overall mshr miss latency
system.cpu.dcache.overall_avg_mshr_miss_latency::cpu.data 50937.698717                       # average overall mshr miss latency
system.cpu.dcache.overall_avg_mshr_miss_latency::total 50937.698717                       # average overall mshr miss latency
system.cpu.dcache.no_allocate_misses                0                       # Number of misses that were no-allocate
system.cpu.dtb_walker_cache.tags.replacements            0                       # number of replacements
system.cpu.dtb_walker_cache.tags.tagsinuse            0                       # Cycle average of tags in use
system.cpu.dtb_walker_cache.tags.total_refs            0                       # Total number of references to valid blocks.
system.cpu.dtb_walker_cache.tags.sampled_refs            0                       # Sample count of references to valid blocks.
system.cpu.dtb_walker_cache.tags.avg_refs          nan                       # Average number of references to valid blocks.
system.cpu.dtb_walker_cache.tags.warmup_cycle            0                       # Cycle when the warmup percentage was hit.
system.cpu.dtb_walker_cache.tags.tag_accesses            0                       # Number of tag accesses
system.cpu.dtb_walker_cache.tags.data_accesses            0                       # Number of data accesses
system.cpu.dtb_walker_cache.blocked_cycles::no_mshrs            0                       # number of cycles access was blocked
system.cpu.dtb_walker_cache.blocked_cycles::no_targets            0                       # number of cycles access was blocked
system.cpu.dtb_walker_cache.blocked::no_mshrs            0                       # number of cycles access was blocked
system.cpu.dtb_walker_cache.blocked::no_targets            0                       # number of cycles access was blocked
system.cpu.dtb_walker_cache.avg_blocked_cycles::no_mshrs          nan                       # average number of cycles each access was blocked
system.cpu.dtb_walker_cache.avg_blocked_cycles::no_targets          nan                       # average number of cycles each access was blocked
system.cpu.dtb_walker_cache.fast_writes             0                       # number of fast writes performed
system.cpu.dtb_walker_cache.cache_copies            0                       # number of cache copies performed
system.cpu.dtb_walker_cache.no_allocate_misses            0                       # Number of misses that were no-allocate
system.cpu.icache.tags.replacements               705                       # number of replacements
system.cpu.icache.tags.tagsinuse           389.101673                       # Cycle average of tags in use
system.cpu.icache.tags.total_refs           687817637                       # Total number of references to valid blocks.
system.cpu.icache.tags.sampled_refs              1168                       # Sample count of references to valid blocks.
system.cpu.icache.tags.avg_refs          588884.963185                       # Average number of references to valid blocks.
system.cpu.icache.tags.warmup_cycle                 0                       # Cycle when the warmup percentage was hit.
system.cpu.icache.tags.occ_blocks::cpu.inst   389.101673                       # Average occupied blocks per requestor
system.cpu.icache.tags.occ_percent::cpu.inst     0.759964                       # Average percentage of cache occupancy
system.cpu.icache.tags.occ_percent::total     0.759964                       # Average percentage of cache occupancy
system.cpu.icache.tags.occ_task_id_blocks::1024          463                       # Occupied blocks per task id
system.cpu.icache.tags.age_task_id_blocks_1024::3            3                       # Occupied blocks per task id
system.cpu.icache.tags.age_task_id_blocks_1024::4          460                       # Occupied blocks per task id
system.cpu.icache.tags.occ_task_id_percent::1024     0.904297                       # Percentage of cache occupancy per task id
system.cpu.icache.tags.tag_accesses         687819973                       # Number of tag accesses
system.cpu.icache.tags.data_accesses        687819973                       # Number of data accesses
system.cpu.icache.ReadReq_hits::cpu.inst    687817637                       # number of ReadReq hits
system.cpu.icache.ReadReq_hits::total       687817637                       # number of ReadReq hits
system.cpu.icache.demand_hits::cpu.inst     687817637                       # number of demand (read+write) hits
system.cpu.icache.demand_hits::total        687817637                       # number of demand (read+write) hits
system.cpu.icache.overall_hits::cpu.inst    687817637                       # number of overall hits
system.cpu.icache.overall_hits::total       687817637                       # number of overall hits
system.cpu.icache.ReadReq_misses::cpu.inst         1168                       # number of ReadReq misses
system.cpu.icache.ReadReq_misses::total          1168                       # number of ReadReq misses
system.cpu.icache.demand_misses::cpu.inst         1168                       # number of demand (read+write) misses
system.cpu.icache.demand_misses::total           1168                       # number of demand (read+write) misses
system.cpu.icache.overall_misses::cpu.inst         1168                       # number of overall misses
system.cpu.icache.overall_misses::total          1168                       # number of overall misses
system.cpu.icache.ReadReq_miss_latency::cpu.inst     80927500                       # number of ReadReq miss cycles
system.cpu.icache.ReadReq_miss_latency::total     80927500                       # number of ReadReq miss cycles
system.cpu.icache.demand_miss_latency::cpu.inst     80927500                       # number of demand (read+write) miss cycles
system.cpu.icache.demand_miss_latency::total     80927500                       # number of demand (read+write) miss cycles
system.cpu.icache.overall_miss_latency::cpu.inst     80927500                       # number of overall miss cycles
system.cpu.icache.overall_miss_latency::total     80927500                       # number of overall miss cycles
system.cpu.icache.ReadReq_accesses::cpu.inst    687818805                       # number of ReadReq accesses(hits+misses)
system.cpu.icache.ReadReq_accesses::total    687818805                       # number of ReadReq accesses(hits+misses)
system.cpu.icache.demand_accesses::cpu.inst    687818805                       # number of demand (read+write) accesses
system.cpu.icache.demand_accesses::total    687818805                       # number of demand (read+write) accesses
system.cpu.icache.overall_accesses::cpu.inst    687818805                       # number of overall (read+write) accesses
system.cpu.icache.overall_accesses::total    687818805                       # number of overall (read+write) accesses
system.cpu.icache.ReadReq_miss_rate::cpu.inst     0.000002                       # miss rate for ReadReq accesses
system.cpu.icache.ReadReq_miss_rate::total     0.000002                       # miss rate for ReadReq accesses
system.cpu.icache.demand_miss_rate::cpu.inst     0.000002                       # miss rate for demand accesses
system.cpu.icache.demand_miss_rate::total     0.000002                       # miss rate for demand accesses
system.cpu.icache.overall_miss_rate::cpu.inst     0.000002                       # miss rate for overall accesses
system.cpu.icache.overall_miss_rate::total     0.000002                       # miss rate for overall accesses
system.cpu.icache.ReadReq_avg_miss_latency::cpu.inst 69287.243151                       # average ReadReq miss latency
system.cpu.icache.ReadReq_avg_miss_latency::total 69287.243151                       # average ReadReq miss latency
system.cpu.icache.demand_avg_miss_latency::cpu.inst 69287.243151                       # average overall miss latency
system.cpu.icache.demand_avg_miss_latency::total 69287.243151                       # average overall miss latency
system.cpu.icache.overall_avg_miss_latency::cpu.inst 69287.243151                       # average overall miss latency
system.cpu.icache.overall_avg_miss_latency::total 69287.243151                       # average overall miss latency
system.cpu.icache.blocked_cycles::no_mshrs            0                       # number of cycles access was blocked
system.cpu.icache.blocked_cycles::no_targets            0                       # number of cycles access was blocked
system.cpu.icache.blocked::no_mshrs                 0                       # number of cycles access was blocked
system.cpu.icache.blocked::no_targets               0                       # number of cycles access was blocked
system.cpu.icache.avg_blocked_cycles::no_mshrs          nan                       # average number of cycles each access was blocked
system.cpu.icache.avg_blocked_cycles::no_targets          nan                       # average number of cycles each access was blocked
system.cpu.icache.fast_writes                       0                       # number of fast writes performed
system.cpu.icache.cache_copies                      0                       # number of cache copies performed
system.cpu.icache.writebacks::writebacks          705                       # number of writebacks
system.cpu.icache.writebacks::total               705                       # number of writebacks
system.cpu.icache.ReadReq_mshr_misses::cpu.inst         1168                       # number of ReadReq MSHR misses
system.cpu.icache.ReadReq_mshr_misses::total         1168                       # number of ReadReq MSHR misses
system.cpu.icache.demand_mshr_misses::cpu.inst         1168                       # number of demand (read+write) MSHR misses
system.cpu.icache.demand_mshr_misses::total         1168                       # number of demand (read+write) MSHR misses
system.cpu.icache.overall_mshr_misses::cpu.inst         1168                       # number of overall MSHR misses
system.cpu.icache.overall_mshr_misses::total         1168                       # number of overall MSHR misses
system.cpu.icache.ReadReq_mshr_miss_latency::cpu.inst     79759500                       # number of ReadReq MSHR miss cycles
system.cpu.icache.ReadReq_mshr_miss_latency::total     79759500                       # number of ReadReq MSHR miss cycles
system.cpu.icache.demand_mshr_miss_latency::cpu.inst     79759500                       # number of demand (read+write) MSHR miss cycles
system.cpu.icache.demand_mshr_miss_latency::total     79759500                       # number of demand (read+write) MSHR miss cycles
system.cpu.icache.overall_mshr_miss_latency::cpu.inst     79759500                       # number of overall MSHR miss cycles
system.cpu.icache.overall_mshr_miss_latency::total     79759500                       # number of overall MSHR miss cycles
system.cpu.icache.ReadReq_mshr_miss_rate::cpu.inst     0.000002                       # mshr miss rate for ReadReq accesses
system.cpu.icache.ReadReq_mshr_miss_rate::total     0.000002                       # mshr miss rate for ReadReq accesses
system.cpu.icache.demand_mshr_miss_rate::cpu.inst     0.000002                       # mshr miss rate for demand accesses
system.cpu.icache.demand_mshr_miss_rate::total     0.000002                       # mshr miss rate for demand accesses
system.cpu.icache.overall_mshr_miss_rate::cpu.inst     0.000002                       # mshr miss rate for overall accesses
system.cpu.icache.overall_mshr_miss_rate::total     0.000002                       # mshr miss rate for overall accesses
system.cpu.icache.ReadReq_avg_mshr_miss_latency::cpu.inst 68287.243151                       # average ReadReq mshr miss latency
system.cpu.icache.ReadReq_avg_mshr_miss_latency::total 68287.243151                       # average ReadReq mshr miss latency
system.cpu.icache.demand_avg_mshr_miss_latency::cpu.inst 68287.243151                       # average overall mshr miss latency
system.cpu.icache.demand_avg_mshr_miss_latency::total 68287.243151                       # average overall mshr miss latency
system.cpu.icache.overall_avg_mshr_miss_latency::cpu.inst 68287.243151                       # average overall mshr miss latency
system.cpu.icache.overall_avg_mshr_miss_latency::total 68287.243151                       # average overall mshr miss latency
system.cpu.icache.no_allocate_misses                0                       # Number of misses that were no-allocate
system.cpu.itb_walker_cache.tags.replacements            0                       # number of replacements
system.cpu.itb_walker_cache.tags.tagsinuse            0                       # Cycle average of tags in use
system.cpu.itb_walker_cache.tags.total_refs            0                       # Total number of references to valid blocks.
system.cpu.itb_walker_cache.tags.sampled_refs            0                       # Sample count of references to valid blocks.
system.cpu.itb_walker_cache.tags.avg_refs          nan                       # Average number of references to valid blocks.
system.cpu.itb_walker_cache.tags.warmup_cycle            0                       # Cycle when the warmup percentage was hit.
system.cpu.itb_walker_cache.tags.tag_accesses            0                       # Number of tag accesses
system.cpu.itb_walker_cache.tags.data_accesses            0                       # Number of data accesses
system.cpu.itb_walker_cache.blocked_cycles::no_mshrs            0                       # number of cycles access was blocked
system.cpu.itb_walker_cache.blocked_cycles::no_targets            0                       # number of cycles access was blocked
system.cpu.itb_walker_cache.blocked::no_mshrs            0                       # number of cycles access was blocked
system.cpu.itb_walker_cache.blocked::no_targets            0                       # number of cycles access was blocked
system.cpu.itb_walker_cache.avg_blocked_cycles::no_mshrs          nan                       # average number of cycles each access was blocked
system.cpu.itb_walker_cache.avg_blocked_cycles::no_targets          nan                       # average number of cycles each access was blocked
system.cpu.itb_walker_cache.fast_writes             0                       # number of fast writes performed
system.cpu.itb_walker_cache.cache_copies            0                       # number of cache copies performed
system.cpu.itb_walker_cache.no_allocate_misses            0                       # Number of misses that were no-allocate
system.l2.tags.replacements                   2739381                       # number of replacements
system.l2.tags.tagsinuse                 15969.012370                       # Cycle average of tags in use
system.l2.tags.total_refs                     5002435                       # Total number of references to valid blocks.
system.l2.tags.sampled_refs                   2755723                       # Sample count of references to valid blocks.
system.l2.tags.avg_refs                      1.815289                       # Average number of references to valid blocks.
system.l2.tags.warmup_cycle               45312755500                       # Cycle when the warmup percentage was hit.
system.l2.tags.occ_blocks::writebacks     7857.403584                       # Average occupied blocks per requestor
system.l2.tags.occ_blocks::cpu.inst          8.083875                       # Average occupied blocks per requestor
system.l2.tags.occ_blocks::cpu.data       8103.524911                       # Average occupied blocks per requestor
system.l2.tags.occ_percent::writebacks       0.479578                       # Average percentage of cache occupancy
system.l2.tags.occ_percent::cpu.inst         0.000493                       # Average percentage of cache occupancy
system.l2.tags.occ_percent::cpu.data         0.494600                       # Average percentage of cache occupancy
system.l2.tags.occ_percent::total            0.974671                       # Average percentage of cache occupancy
system.l2.tags.occ_task_id_blocks::1024         16342                       # Occupied blocks per task id
system.l2.tags.age_task_id_blocks_1024::1            1                       # Occupied blocks per task id
system.l2.tags.age_task_id_blocks_1024::2           39                       # Occupied blocks per task id
system.l2.tags.age_task_id_blocks_1024::3           81                       # Occupied blocks per task id
system.l2.tags.age_task_id_blocks_1024::4        16221                       # Occupied blocks per task id
system.l2.tags.occ_task_id_percent::1024     0.997437                       # Percentage of cache occupancy per task id
system.l2.tags.tag_accesses                  13989882                       # Number of tag accesses
system.l2.tags.data_accesses                 13989882                       # Number of data accesses
system.l2.WritebackDirty_hits::writebacks      2309692                       # number of WritebackDirty hits
system.l2.WritebackDirty_hits::total          2309692                       # number of WritebackDirty hits
system.l2.WritebackClean_hits::writebacks          705                       # number of WritebackClean hits
system.l2.WritebackClean_hits::total              705                       # number of WritebackClean hits
system.l2.ReadExReq_hits::cpu.data             388802                       # number of ReadExReq hits
system.l2.ReadExReq_hits::total                388802                       # number of ReadExReq hits
system.l2.ReadCleanReq_hits::cpu.inst             147                       # number of ReadCleanReq hits
system.l2.ReadCleanReq_hits::total                147                       # number of ReadCleanReq hits
system.l2.ReadSharedReq_hits::cpu.data        1614980                       # number of ReadSharedReq hits
system.l2.ReadSharedReq_hits::total           1614980                       # number of ReadSharedReq hits
system.l2.demand_hits::cpu.inst                   147                       # number of demand (read+write) hits
system.l2.demand_hits::cpu.data               2003782                       # number of demand (read+write) hits
system.l2.demand_hits::total                  2003929                       # number of demand (read+write) hits
system.l2.overall_hits::cpu.inst                  147                       # number of overall hits
system.l2.overall_hits::cpu.data              2003782                       # number of overall hits
system.l2.overall_hits::total                 2003929                       # number of overall hits
system.l2.ReadExReq_misses::cpu.data          1342345                       # number of ReadExReq misses
system.l2.ReadExReq_misses::total             1342345                       # number of ReadExReq misses
system.l2.ReadCleanReq_misses::cpu.inst          1021                       # number of ReadCleanReq misses
system.l2.ReadCleanReq_misses::total             1021                       # number of ReadCleanReq misses
system.l2.ReadSharedReq_misses::cpu.data      1404699                       # number of ReadSharedReq misses
system.l2.ReadSharedReq_misses::total         1404699                       # number of ReadSharedReq misses
system.l2.demand_misses::cpu.inst                1021                       # number of demand (read+write) misses
system.l2.demand_misses::cpu.data             2747044                       # number of demand (read+write) misses
system.l2.demand_misses::total                2748065                       # number of demand (read+write) misses
system.l2.overall_misses::cpu.inst               1021                       # number of overall misses
system.l2.overall_misses::cpu.data            2747044                       # number of overall misses
system.l2.overall_misses::total               2748065                       # number of overall misses
system.l2.ReadExReq_miss_latency::cpu.data 106698777000                       # number of ReadExReq miss cycles
system.l2.ReadExReq_miss_latency::total  106698777000                       # number of ReadExReq miss cycles
system.l2.ReadCleanReq_miss_latency::cpu.inst     76460500                       # number of ReadCleanReq miss cycles
system.l2.ReadCleanReq_miss_latency::total     76460500                       # number of ReadCleanReq miss cycles
system.l2.ReadSharedReq_miss_latency::cpu.data 107131250000                       # number of ReadSharedReq miss cycles
system.l2.ReadSharedReq_miss_latency::total 107131250000                       # number of ReadSharedReq miss cycles
system.l2.demand_miss_latency::cpu.inst      76460500                       # number of demand (read+write) miss cycles
system.l2.demand_miss_latency::cpu.data  213830027000                       # number of demand (read+write) miss cycles
system.l2.demand_miss_latency::total     213906487500                       # number of demand (read+write) miss cycles
system.l2.overall_miss_latency::cpu.inst     76460500                       # number of overall miss cycles
system.l2.overall_miss_latency::cpu.data 213830027000                       # number of overall miss cycles
system.l2.overall_miss_latency::total    213906487500                       # number of overall miss cycles
system.l2.WritebackDirty_accesses::writebacks      2309692                       # number of WritebackDirty accesses(hits+misses)
system.l2.WritebackDirty_accesses::total      2309692                       # number of WritebackDirty accesses(hits+misses)
system.l2.WritebackClean_accesses::writebacks          705                       # number of WritebackClean accesses(hits+misses)
system.l2.WritebackClean_accesses::total          705                       # number of WritebackClean accesses(hits+misses)
system.l2.ReadExReq_accesses::cpu.data        1731147                       # number of ReadExReq accesses(hits+misses)
system.l2.ReadExReq_accesses::total           1731147                       # number of ReadExReq accesses(hits+misses)
system.l2.ReadCleanReq_accesses::cpu.inst         1168                       # number of ReadCleanReq accesses(hits+misses)
system.l2.ReadCleanReq_accesses::total           1168                       # number of ReadCleanReq accesses(hits+misses)
system.l2.ReadSharedReq_accesses::cpu.data      3019679                       # number of ReadSharedReq accesses(hits+misses)
system.l2.ReadSharedReq_accesses::total       3019679                       # number of ReadSharedReq accesses(hits+misses)
system.l2.demand_accesses::cpu.inst              1168                       # number of demand (read+write) accesses
system.l2.demand_accesses::cpu.data           4750826                       # number of demand (read+write) accesses
system.l2.demand_accesses::total              4751994                       # number of demand (read+write) accesses
system.l2.overall_accesses::cpu.inst             1168                       # number of overall (read+write) accesses
system.l2.overall_accesses::cpu.data          4750826                       # number of overall (read+write) accesses
system.l2.overall_accesses::total             4751994                       # number of overall (read+write) accesses
system.l2.ReadExReq_miss_rate::cpu.data      0.775408                       # miss rate for ReadExReq accesses
system.l2.ReadExReq_miss_rate::total         0.775408                       # miss rate for ReadExReq accesses
system.l2.ReadCleanReq_miss_rate::cpu.inst     0.874144                       # miss rate for ReadCleanReq accesses
system.l2.ReadCleanReq_miss_rate::total      0.874144                       # miss rate for ReadCleanReq accesses
system.l2.ReadSharedReq_miss_rate::cpu.data     0.465182                       # miss rate for ReadSharedReq accesses
system.l2.ReadSharedReq_miss_rate::total     0.465182                       # miss rate for ReadSharedReq accesses
system.l2.demand_miss_rate::cpu.inst         0.874144                       # miss rate for demand accesses
system.l2.demand_miss_rate::cpu.data         0.578225                       # miss rate for demand accesses
system.l2.demand_miss_rate::total            0.578297                       # miss rate for demand accesses
system.l2.overall_miss_rate::cpu.inst        0.874144                       # miss rate for overall accesses
system.l2.overall_miss_rate::cpu.data        0.578225                       # miss rate for overall accesses
system.l2.overall_miss_rate::total           0.578297                       # miss rate for overall accesses
system.l2.ReadExReq_avg_miss_latency::cpu.data 79486.850996                       # average ReadExReq miss latency
system.l2.ReadExReq_avg_miss_latency::total 79486.850996                       # average ReadExReq miss latency
system.l2.ReadCleanReq_avg_miss_latency::cpu.inst 74887.855044                       # average ReadCleanReq miss latency
system.l2.ReadCleanReq_avg_miss_latency::total 74887.855044                       # average ReadCleanReq miss latency
system.l2.ReadSharedReq_avg_miss_latency::cpu.data 76266.338910                       # average ReadSharedReq miss latency
system.l2.ReadSharedReq_avg_miss_latency::total 76266.338910                       # average ReadSharedReq miss latency
system.l2.demand_avg_miss_latency::cpu.inst 74887.855044                       # average overall miss latency
system.l2.demand_avg_miss_latency::cpu.data 77840.044426                       # average overall miss latency
system.l2.demand_avg_miss_latency::total 77838.947587                       # average overall miss latency
system.l2.overall_avg_miss_latency::cpu.inst 74887.855044                       # average overall miss latency
system.l2.overall_avg_miss_latency::cpu.data 77840.044426                       # average overall miss latency
system.l2.overall_avg_miss_latency::total 77838.947587                       # average overall miss latency
system.l2.blocked_cycles::no_mshrs                  0                       # number of cycles access was blocked
system.l2.blocked_cycles::no_targets                0                       # number of cycles access was blocked
system.l2.blocked::no_mshrs                         0                       # number of cycles access was blocked
system.l2.blocked::no_targets                       0                       # number of cycles access was blocked
system.l2.avg_blocked_cycles::no_mshrs            nan                       # average number of cycles each access was blocked
system.l2.avg_blocked_cycles::no_targets          nan                       # average number of cycles each access was blocked
system.l2.fast_writes                               0                       # number of fast writes performed
system.l2.cache_copies                              0                       # number of cache copies performed
system.l2.writebacks::writebacks              1452434                       # number of writebacks
system.l2.writebacks::total                   1452434                       # number of writebacks
system.l2.CleanEvict_mshr_misses::writebacks        13510                       # number of CleanEvict MSHR misses
system.l2.CleanEvict_mshr_misses::total         13510                       # number of CleanEvict MSHR misses
system.l2.ReadExReq_mshr_misses::cpu.data      1342345                       # number of ReadExReq MSHR misses
system.l2.ReadExReq_mshr_misses::total        1342345                       # number of ReadExReq MSHR misses
system.l2.ReadCleanReq_mshr_misses::cpu.inst         1021                       # number of ReadCleanReq MSHR misses
system.l2.ReadCleanReq_mshr_misses::total         1021                       # number of ReadCleanReq MSHR misses
system.l2.ReadSharedReq_mshr_misses::cpu.data      1404699                       # number of ReadSharedReq MSHR misses
system.l2.ReadSharedReq_mshr_misses::total      1404699                       # number of ReadSharedReq MSHR misses
system.l2.demand_mshr_misses::cpu.inst           1021                       # number of demand (read+write) MSHR misses
system.l2.demand_mshr_misses::cpu.data        2747044                       # number of demand (read+write) MSHR misses
system.l2.demand_mshr_misses::total           2748065                       # number of demand (read+write) MSHR misses
system.l2.overall_mshr_misses::cpu.inst          1021                       # number of overall MSHR misses
system.l2.overall_mshr_misses::cpu.data       2747044                       # number of overall MSHR misses
system.l2.overall_mshr_misses::total          2748065                       # number of overall MSHR misses
system.l2.ReadExReq_mshr_miss_latency::cpu.data  93275327000                       # number of ReadExReq MSHR miss cycles
system.l2.ReadExReq_mshr_miss_latency::total  93275327000                       # number of ReadExReq MSHR miss cycles
system.l2.ReadCleanReq_mshr_miss_latency::cpu.inst     66250500                       # number of ReadCleanReq MSHR miss cycles
system.l2.ReadCleanReq_mshr_miss_latency::total     66250500                       # number of ReadCleanReq MSHR miss cycles
system.l2.ReadSharedReq_mshr_miss_latency::cpu.data  93084260000                       # number of ReadSharedReq MSHR miss cycles
system.l2.ReadSharedReq_mshr_miss_latency::total  93084260000                       # number of ReadSharedReq MSHR miss cycles
system.l2.demand_mshr_miss_latency::cpu.inst     66250500                       # number of demand (read+write) MSHR miss cycles
system.l2.demand_mshr_miss_latency::cpu.data 186359587000                       # number of demand (read+write) MSHR miss cycles
system.l2.demand_mshr_miss_latency::total 186425837500                       # number of demand (read+write) MSHR miss cycles
system.l2.overall_mshr_miss_latency::cpu.inst     66250500                       # number of overall MSHR miss cycles
system.l2.overall_mshr_miss_latency::cpu.data 186359587000                       # number of overall MSHR miss cycles
system.l2.overall_mshr_miss_latency::total 186425837500                       # number of overall MSHR miss cycles
system.l2.CleanEvict_mshr_miss_rate::writebacks          inf                       # mshr miss rate for CleanEvict accesses
system.l2.CleanEvict_mshr_miss_rate::total          inf                       # mshr miss rate for CleanEvict accesses
system.l2.ReadExReq_mshr_miss_rate::cpu.data     0.775408                       # mshr miss rate for ReadExReq accesses
system.l2.ReadExReq_mshr_miss_rate::total     0.775408                       # mshr miss rate for ReadExReq accesses
system.l2.ReadCleanReq_mshr_miss_rate::cpu.inst     0.874144                       # mshr miss rate for ReadCleanReq accesses
system.l2.ReadCleanReq_mshr_miss_rate::total     0.874144                       # mshr miss rate for ReadCleanReq accesses
system.l2.ReadSharedReq_mshr_miss_rate::cpu.data     0.465182                       # mshr miss rate for ReadSharedReq accesses
system.l2.ReadSharedReq_mshr_miss_rate::total     0.465182                       # mshr miss rate for ReadSharedReq accesses
system.l2.demand_mshr_miss_rate::cpu.inst     0.874144                       # mshr miss rate for demand accesses
system.l2.demand_mshr_miss_rate::cpu.data     0.578225                       # mshr miss rate for demand accesses
system.l2.demand_mshr_miss_rate::total       0.578297                       # mshr miss rate for demand accesses
system.l2.overall_mshr_miss_rate::cpu.inst     0.874144                       # mshr miss rate for overall accesses
system.l2.overall_mshr_miss_rate::cpu.data     0.578225                       # mshr miss rate for overall accesses
system.l2.overall_mshr_miss_rate::total      0.578297                       # mshr miss rate for overall accesses
system.l2.ReadExReq_avg_mshr_miss_latency::cpu.data 69486.850996                       # average ReadExReq mshr miss latency
system.l2.ReadExReq_avg_mshr_miss_latency::total 69486.850996                       # average ReadExReq mshr miss latency
system.l2.ReadCleanReq_avg_mshr_miss_latency::cpu.inst 64887.855044                       # average ReadCleanReq mshr miss latency
system.l2.ReadCleanReq_avg_mshr_miss_latency::total 64887.855044                       # average ReadCleanReq mshr miss latency
system.l2.ReadSharedReq_avg_mshr_miss_latency::cpu.data 66266.338910                       # average ReadSharedReq mshr miss latency
system.l2.ReadSharedReq_avg_mshr_miss_latency::total 66266.338910                       # average ReadSharedReq mshr miss latency
system.l2.demand_avg_mshr_miss_latency::cpu.inst 64887.855044                       # average overall mshr miss latency
system.l2.demand_avg_mshr_miss_latency::cpu.data 67840.044426                       # average overall mshr miss latency
system.l2.demand_avg_mshr_miss_latency::total 67838.947587                       # average overall mshr miss latency
system.l2.overall_avg_mshr_miss_latency::cpu.inst 64887.855044                       # average overall mshr miss latency
system.l2.overall_avg_mshr_miss_latency::cpu.data 67840.044426                       # average overall mshr miss latency
system.l2.overall_avg_mshr_miss_latency::total 67838.947587                       # average overall mshr miss latency
system.l2.no_allocate_misses                        0                       # Number of misses that were no-allocate
system.membus.trans_dist::ReadResp            1405720                       # Transaction distribution
system.membus.trans_dist::WritebackDirty      1452434                       # Transaction distribution
system.membus.trans_dist::CleanEvict          1278750                       # Transaction distribution
system.membus.trans_dist::ReadExReq           1342345                       # Transaction distribution
system.membus.trans_dist::ReadExResp          1342345                       # Transaction distribution
system.membus.trans_dist::ReadSharedReq       1405720                       # Transaction distribution
system.membus.pkt_count_system.l2.mem_side::system.mem_ctrls.port      8227314                       # Packet count per connected master and slave (bytes)
system.membus.pkt_count_system.l2.mem_side::total      8227314                       # Packet count per connected master and slave (bytes)
system.membus.pkt_count::total                8227314                       # Packet count per connected master and slave (bytes)
system.membus.pkt_size_system.l2.mem_side::system.mem_ctrls.port    268831936                       # Cumulative packet size per connected master and slave (bytes)
system.membus.pkt_size_system.l2.mem_side::total    268831936                       # Cumulative packet size per connected master and slave (bytes)
system.membus.pkt_size::total               268831936                       # Cumulative packet size per connected master and slave (bytes)
system.membus.snoops                                0                       # Total snoops (count)
system.membus.snoop_fanout::samples           5479249                       # Request fanout histogram
system.membus.snoop_fanout::mean                    0                       # Request fanout histogram
system.membus.snoop_fanout::stdev                   0                       # Request fanout histogram
system.membus.snoop_fanout::underflows              0      0.00%      0.00% # Request fanout histogram
system.membus.snoop_fanout::0                 5479249    100.00%    100.00% # Request fanout histogram
system.membus.snoop_fanout::1                       0      0.00%    100.00% # Request fanout histogram
system.membus.snoop_fanout::overflows               0      0.00%    100.00% # Request fanout histogram
system.membus.snoop_fanout::min_value               0                       # Request fanout histogram
system.membus.snoop_fanout::max_value               0                       # Request fanout histogram
system.membus.snoop_fanout::total             5479249                       # Request fanout histogram
system.membus.reqLayer2.occupancy         11319978500                       # Layer occupancy (ticks)
system.membus.reqLayer2.utilization               0.9                       # Layer utilization (%)
system.membus.respLayer1.occupancy        14584107000                       # Layer occupancy (ticks)
system.membus.respLayer1.utilization              1.2                       # Layer utilization (%)
system.tol2bus.snoop_filter.tot_requests      9503013                       # Total number of requests made to the snoop filter.
system.tol2bus.snoop_filter.hit_single_requests      4751019                       # Number of requests hitting in the snoop filter with a single holder of the requested data.
system.tol2bus.snoop_filter.hit_multi_requests            1                       # Number of requests hitting in the snoop filter with multiple (>1) holders of the requested data.
system.tol2bus.snoop_filter.tot_snoops          21707                       # Total number of snoops made to the snoop filter.
system.tol2bus.snoop_filter.hit_single_snoops        21707                       # Number of snoops hitting in the snoop filter with a single holder of the requested data.
system.tol2bus.snoop_filter.hit_multi_snoops            0                       # Number of snoops hitting in the snoop filter with multiple (>1) holders of the requested data.
system.tol2bus.trans_dist::ReadResp           3020847                       # Transaction distribution
system.tol2bus.trans_dist::WritebackDirty      3762126                       # Transaction distribution
system.tol2bus.trans_dist::WritebackClean          705                       # Transaction distribution
system.tol2bus.trans_dist::CleanEvict         3727568                       # Transaction distribution
system.tol2bus.trans_dist::ReadExReq          1731147                       # Transaction distribution
system.tol2bus.trans_dist::ReadExResp         1731147                       # Transaction distribution
system.tol2bus.trans_dist::ReadCleanReq          1168                       # Transaction distribution
system.tol2bus.trans_dist::ReadSharedReq      3019679                       # Transaction distribution
system.tol2bus.pkt_count_system.cpu.icache.mem_side::system.l2.cpu_side         3041                       # Packet count per connected master and slave (bytes)
system.tol2bus.pkt_count_system.cpu.dcache.mem_side::system.l2.cpu_side     14251965                       # Packet count per connected master and slave (bytes)
system.tol2bus.pkt_count::total              14255006                       # Packet count per connected master and slave (bytes)
system.tol2bus.pkt_size_system.cpu.icache.mem_side::system.l2.cpu_side       119872                       # Cumulative packet size per connected master and slave (bytes)
system.tol2bus.pkt_size_system.cpu.dcache.mem_side::system.l2.cpu_side    451873152                       # Cumulative packet size per connected master and slave (bytes)
system.tol2bus.pkt_size::total              451993024                       # Cumulative packet size per connected master and slave (bytes)
system.tol2bus.snoops                         2739381                       # Total snoops (count)
system.tol2bus.snoop_fanout::samples          7491375                       # Request fanout histogram
system.tol2bus.snoop_fanout::mean            0.002898                       # Request fanout histogram
system.tol2bus.snoop_fanout::stdev           0.053753                       # Request fanout histogram
system.tol2bus.snoop_fanout::underflows             0      0.00%      0.00% # Request fanout histogram
system.tol2bus.snoop_fanout::0                7469667     99.71%     99.71% # Request fanout histogram
system.tol2bus.snoop_fanout::1                  21708      0.29%    100.00% # Request fanout histogram
system.tol2bus.snoop_fanout::2                      0      0.00%    100.00% # Request fanout histogram
system.tol2bus.snoop_fanout::3                      0      0.00%    100.00% # Request fanout histogram
system.tol2bus.snoop_fanout::4                      0      0.00%    100.00% # Request fanout histogram
system.tol2bus.snoop_fanout::overflows              0      0.00%    100.00% # Request fanout histogram
system.tol2bus.snoop_fanout::min_value              0                       # Request fanout histogram
system.tol2bus.snoop_fanout::max_value              1                       # Request fanout histogram
system.tol2bus.snoop_fanout::total            7491375                       # Request fanout histogram
system.tol2bus.reqLayer0.occupancy         7061903500                       # Layer occupancy (ticks)
system.tol2bus.reqLayer0.utilization              0.6                       # Layer utilization (%)
system.tol2bus.respLayer0.occupancy           1752000                       # Layer occupancy (ticks)
system.tol2bus.respLayer0.utilization             0.0                       # Layer utilization (%)
system.tol2bus.respLayer1.occupancy        7126239000                       # Layer occupancy (ticks)
system.tol2bus.respLayer1.utilization             0.6                       # Layer utilization (%)

---------- End Simulation Statistics   ----------
