
---------- Begin Simulation Statistics ----------
sim_seconds                                  1.232012                       # Number of seconds simulated
sim_ticks                                1232011525500                       # Number of ticks simulated
final_tick                               1232011525500                       # Number of ticks from beginning of simulation (restored from checkpoints and never reset)
sim_freq                                 1000000000000                       # Frequency of simulated ticks
host_inst_rate                                 657134                       # Simulator instruction rate (inst/s)
host_op_rate                                   958020                       # Simulator op (including micro ops) rate (op/s)
host_tick_rate                             1619194366                       # Simulator tick rate (ticks/s)
host_mem_usage                                 833984                       # Number of bytes of host memory used
host_seconds                                   760.88                       # Real time elapsed on the host
sim_insts                                   500000001                       # Number of instructions simulated
sim_ops                                     728937824                       # Number of ops (including micro ops) simulated
system.voltage_domain.voltage                       1                       # Voltage in Volts
system.clk_domain.clock                          1000                       # Clock period in ticks
system.mem_ctrls.bytes_read::cpu.inst           61888                       # Number of bytes read from this memory
system.mem_ctrls.bytes_read::cpu.data       176162560                       # Number of bytes read from this memory
system.mem_ctrls.bytes_read::total          176224448                       # Number of bytes read from this memory
system.mem_ctrls.bytes_inst_read::cpu.inst        61888                       # Number of instructions bytes read from this memory
system.mem_ctrls.bytes_inst_read::total         61888                       # Number of instructions bytes read from this memory
system.mem_ctrls.bytes_written::writebacks     92793536                       # Number of bytes written to this memory
system.mem_ctrls.bytes_written::total        92793536                       # Number of bytes written to this memory
system.mem_ctrls.num_reads::cpu.inst              967                       # Number of read requests responded to by this memory
system.mem_ctrls.num_reads::cpu.data          2752540                       # Number of read requests responded to by this memory
system.mem_ctrls.num_reads::total             2753507                       # Number of read requests responded to by this memory
system.mem_ctrls.num_writes::writebacks       1449899                       # Number of write requests responded to by this memory
system.mem_ctrls.num_writes::total            1449899                       # Number of write requests responded to by this memory
system.mem_ctrls.bw_read::cpu.inst              50233                       # Total read bandwidth from this memory (bytes/s)
system.mem_ctrls.bw_read::cpu.data          142987753                       # Total read bandwidth from this memory (bytes/s)
system.mem_ctrls.bw_read::total             143037987                       # Total read bandwidth from this memory (bytes/s)
system.mem_ctrls.bw_inst_read::cpu.inst         50233                       # Instruction read bandwidth from this memory (bytes/s)
system.mem_ctrls.bw_inst_read::total            50233                       # Instruction read bandwidth from this memory (bytes/s)
system.mem_ctrls.bw_write::writebacks        75318724                       # Write bandwidth from this memory (bytes/s)
system.mem_ctrls.bw_write::total             75318724                       # Write bandwidth from this memory (bytes/s)
system.mem_ctrls.bw_total::writebacks        75318724                       # Total bandwidth to/from this memory (bytes/s)
system.mem_ctrls.bw_total::cpu.inst             50233                       # Total bandwidth to/from this memory (bytes/s)
system.mem_ctrls.bw_total::cpu.data         142987753                       # Total bandwidth to/from this memory (bytes/s)
system.mem_ctrls.bw_total::total            218356710                       # Total bandwidth to/from this memory (bytes/s)
system.mem_ctrls.readReqs                     2753507                       # Number of read requests accepted
system.mem_ctrls.writeReqs                    1449899                       # Number of write requests accepted
system.mem_ctrls.readBursts                   2753507                       # Number of DRAM read bursts, including those serviced by the write queue
system.mem_ctrls.writeBursts                  1449899                       # Number of DRAM write bursts, including those merged in the write queue
system.mem_ctrls.bytesReadDRAM              176036864                       # Total number of bytes read from DRAM
system.mem_ctrls.bytesReadWrQ                  187584                       # Total number of bytes read from write queue
system.mem_ctrls.bytesWritten                92770752                       # Total number of bytes written to DRAM
system.mem_ctrls.bytesReadSys               176224448                       # Total read bytes from the system interface side
system.mem_ctrls.bytesWrittenSys             92793536                       # Total written bytes from the system interface side
system.mem_ctrls.servicedByWrQ                   2931                       # Number of DRAM read bursts serviced by the write queue
system.mem_ctrls.mergedWrBursts                   340                       # Number of DRAM write bursts merged with an existing one
system.mem_ctrls.neitherReadNorWriteReqs      1286367                       # Number of requests that are neither read nor write
system.mem_ctrls.perBankRdBursts::0            173719                       # Per bank write bursts
system.mem_ctrls.perBankRdBursts::1            172099                       # Per bank write bursts
system.mem_ctrls.perBankRdBursts::2            172997                       # Per bank write bursts
system.mem_ctrls.perBankRdBursts::3            169506                       # Per bank write bursts
system.mem_ctrls.perBankRdBursts::4            169621                       # Per bank write bursts
system.mem_ctrls.perBankRdBursts::5            168994                       # Per bank write bursts
system.mem_ctrls.perBankRdBursts::6            171142                       # Per bank write bursts
system.mem_ctrls.perBankRdBursts::7            170147                       # Per bank write bursts
system.mem_ctrls.perBankRdBursts::8            167924                       # Per bank write bursts
system.mem_ctrls.perBankRdBursts::9            168154                       # Per bank write bursts
system.mem_ctrls.perBankRdBursts::10           171750                       # Per bank write bursts
system.mem_ctrls.perBankRdBursts::11           172019                       # Per bank write bursts
system.mem_ctrls.perBankRdBursts::12           175137                       # Per bank write bursts
system.mem_ctrls.perBankRdBursts::13           174017                       # Per bank write bursts
system.mem_ctrls.perBankRdBursts::14           174423                       # Per bank write bursts
system.mem_ctrls.perBankRdBursts::15           178927                       # Per bank write bursts
system.mem_ctrls.perBankWrBursts::0             91429                       # Per bank write bursts
system.mem_ctrls.perBankWrBursts::1             90871                       # Per bank write bursts
system.mem_ctrls.perBankWrBursts::2             92302                       # Per bank write bursts
system.mem_ctrls.perBankWrBursts::3             89913                       # Per bank write bursts
system.mem_ctrls.perBankWrBursts::4             89432                       # Per bank write bursts
system.mem_ctrls.perBankWrBursts::5             88808                       # Per bank write bursts
system.mem_ctrls.perBankWrBursts::6             90345                       # Per bank write bursts
system.mem_ctrls.perBankWrBursts::7             90188                       # Per bank write bursts
system.mem_ctrls.perBankWrBursts::8             89153                       # Per bank write bursts
system.mem_ctrls.perBankWrBursts::9             89208                       # Per bank write bursts
system.mem_ctrls.perBankWrBursts::10            90579                       # Per bank write bursts
system.mem_ctrls.perBankWrBursts::11            90225                       # Per bank write bursts
system.mem_ctrls.perBankWrBursts::12            90982                       # Per bank write bursts
system.mem_ctrls.perBankWrBursts::13            91178                       # Per bank write bursts
system.mem_ctrls.perBankWrBursts::14            91614                       # Per bank write bursts
system.mem_ctrls.perBankWrBursts::15            93316                       # Per bank write bursts
system.mem_ctrls.numRdRetry                         0                       # Number of times read queue was full causing retry
system.mem_ctrls.numWrRetry                         0                       # Number of times write queue was full causing retry
system.mem_ctrls.totGap                  1227687008500                       # Total gap between requests
system.mem_ctrls.readPktSize::0                     0                       # Read request sizes (log2)
system.mem_ctrls.readPktSize::1                     0                       # Read request sizes (log2)
system.mem_ctrls.readPktSize::2                     0                       # Read request sizes (log2)
system.mem_ctrls.readPktSize::3                     0                       # Read request sizes (log2)
system.mem_ctrls.readPktSize::4                     0                       # Read request sizes (log2)
system.mem_ctrls.readPktSize::5                     0                       # Read request sizes (log2)
system.mem_ctrls.readPktSize::6               2753507                       # Read request sizes (log2)
system.mem_ctrls.writePktSize::0                    0                       # Write request sizes (log2)
system.mem_ctrls.writePktSize::1                    0                       # Write request sizes (log2)
system.mem_ctrls.writePktSize::2                    0                       # Write request sizes (log2)
system.mem_ctrls.writePktSize::3                    0                       # Write request sizes (log2)
system.mem_ctrls.writePktSize::4                    0                       # Write request sizes (log2)
system.mem_ctrls.writePktSize::5                    0                       # Write request sizes (log2)
system.mem_ctrls.writePktSize::6              1449899                       # Write request sizes (log2)
system.mem_ctrls.rdQLenPdf::0                 2715142                       # What read queue length does an incoming req see
system.mem_ctrls.rdQLenPdf::1                   30897                       # What read queue length does an incoming req see
system.mem_ctrls.rdQLenPdf::2                    2649                       # What read queue length does an incoming req see
system.mem_ctrls.rdQLenPdf::3                    1888                       # What read queue length does an incoming req see
system.mem_ctrls.rdQLenPdf::4                       0                       # What read queue length does an incoming req see
system.mem_ctrls.rdQLenPdf::5                       0                       # What read queue length does an incoming req see
system.mem_ctrls.rdQLenPdf::6                       0                       # What read queue length does an incoming req see
system.mem_ctrls.rdQLenPdf::7                       0                       # What read queue length does an incoming req see
system.mem_ctrls.rdQLenPdf::8                       0                       # What read queue length does an incoming req see
system.mem_ctrls.rdQLenPdf::9                       0                       # What read queue length does an incoming req see
system.mem_ctrls.rdQLenPdf::10                      0                       # What read queue length does an incoming req see
system.mem_ctrls.rdQLenPdf::11                      0                       # What read queue length does an incoming req see
system.mem_ctrls.rdQLenPdf::12                      0                       # What read queue length does an incoming req see
system.mem_ctrls.rdQLenPdf::13                      0                       # What read queue length does an incoming req see
system.mem_ctrls.rdQLenPdf::14                      0                       # What read queue length does an incoming req see
system.mem_ctrls.rdQLenPdf::15                      0                       # What read queue length does an incoming req see
system.mem_ctrls.rdQLenPdf::16                      0                       # What read queue length does an incoming req see
system.mem_ctrls.rdQLenPdf::17                      0                       # What read queue length does an incoming req see
system.mem_ctrls.rdQLenPdf::18                      0                       # What read queue length does an incoming req see
system.mem_ctrls.rdQLenPdf::19                      0                       # What read queue length does an incoming req see
system.mem_ctrls.rdQLenPdf::20                      0                       # What read queue length does an incoming req see
system.mem_ctrls.rdQLenPdf::21                      0                       # What read queue length does an incoming req see
system.mem_ctrls.rdQLenPdf::22                      0                       # What read queue length does an incoming req see
system.mem_ctrls.rdQLenPdf::23                      0                       # What read queue length does an incoming req see
system.mem_ctrls.rdQLenPdf::24                      0                       # What read queue length does an incoming req see
system.mem_ctrls.rdQLenPdf::25                      0                       # What read queue length does an incoming req see
system.mem_ctrls.rdQLenPdf::26                      0                       # What read queue length does an incoming req see
system.mem_ctrls.rdQLenPdf::27                      0                       # What read queue length does an incoming req see
system.mem_ctrls.rdQLenPdf::28                      0                       # What read queue length does an incoming req see
system.mem_ctrls.rdQLenPdf::29                      0                       # What read queue length does an incoming req see
system.mem_ctrls.rdQLenPdf::30                      0                       # What read queue length does an incoming req see
system.mem_ctrls.rdQLenPdf::31                      0                       # What read queue length does an incoming req see
system.mem_ctrls.wrQLenPdf::0                       1                       # What write queue length does an incoming req see
system.mem_ctrls.wrQLenPdf::1                       1                       # What write queue length does an incoming req see
system.mem_ctrls.wrQLenPdf::2                       1                       # What write queue length does an incoming req see
system.mem_ctrls.wrQLenPdf::3                       1                       # What write queue length does an incoming req see
system.mem_ctrls.wrQLenPdf::4                       1                       # What write queue length does an incoming req see
system.mem_ctrls.wrQLenPdf::5                       1                       # What write queue length does an incoming req see
system.mem_ctrls.wrQLenPdf::6                       1                       # What write queue length does an incoming req see
system.mem_ctrls.wrQLenPdf::7                       1                       # What write queue length does an incoming req see
system.mem_ctrls.wrQLenPdf::8                       1                       # What write queue length does an incoming req see
system.mem_ctrls.wrQLenPdf::9                       1                       # What write queue length does an incoming req see
system.mem_ctrls.wrQLenPdf::10                      1                       # What write queue length does an incoming req see
system.mem_ctrls.wrQLenPdf::11                      1                       # What write queue length does an incoming req see
system.mem_ctrls.wrQLenPdf::12                      1                       # What write queue length does an incoming req see
system.mem_ctrls.wrQLenPdf::13                      1                       # What write queue length does an incoming req see
system.mem_ctrls.wrQLenPdf::14                      1                       # What write queue length does an incoming req see
system.mem_ctrls.wrQLenPdf::15                  15373                       # What write queue length does an incoming req see
system.mem_ctrls.wrQLenPdf::16                  16132                       # What write queue length does an incoming req see
system.mem_ctrls.wrQLenPdf::17                  87528                       # What write queue length does an incoming req see
system.mem_ctrls.wrQLenPdf::18                  88194                       # What write queue length does an incoming req see
system.mem_ctrls.wrQLenPdf::19                  88574                       # What write queue length does an incoming req see
system.mem_ctrls.wrQLenPdf::20                  88637                       # What write queue length does an incoming req see
system.mem_ctrls.wrQLenPdf::21                  88701                       # What write queue length does an incoming req see
system.mem_ctrls.wrQLenPdf::22                  88928                       # What write queue length does an incoming req see
system.mem_ctrls.wrQLenPdf::23                  88761                       # What write queue length does an incoming req see
system.mem_ctrls.wrQLenPdf::24                  88816                       # What write queue length does an incoming req see
system.mem_ctrls.wrQLenPdf::25                  88660                       # What write queue length does an incoming req see
system.mem_ctrls.wrQLenPdf::26                  88627                       # What write queue length does an incoming req see
system.mem_ctrls.wrQLenPdf::27                  88699                       # What write queue length does an incoming req see
system.mem_ctrls.wrQLenPdf::28                  88724                       # What write queue length does an incoming req see
system.mem_ctrls.wrQLenPdf::29                  89095                       # What write queue length does an incoming req see
system.mem_ctrls.wrQLenPdf::30                  88632                       # What write queue length does an incoming req see
system.mem_ctrls.wrQLenPdf::31                  88848                       # What write queue length does an incoming req see
system.mem_ctrls.wrQLenPdf::32                  88609                       # What write queue length does an incoming req see
system.mem_ctrls.wrQLenPdf::33                      5                       # What write queue length does an incoming req see
system.mem_ctrls.wrQLenPdf::34                      1                       # What write queue length does an incoming req see
system.mem_ctrls.wrQLenPdf::35                      0                       # What write queue length does an incoming req see
system.mem_ctrls.wrQLenPdf::36                      0                       # What write queue length does an incoming req see
system.mem_ctrls.wrQLenPdf::37                      0                       # What write queue length does an incoming req see
system.mem_ctrls.wrQLenPdf::38                      0                       # What write queue length does an incoming req see
system.mem_ctrls.wrQLenPdf::39                      0                       # What write queue length does an incoming req see
system.mem_ctrls.wrQLenPdf::40                      0                       # What write queue length does an incoming req see
system.mem_ctrls.wrQLenPdf::41                      0                       # What write queue length does an incoming req see
system.mem_ctrls.wrQLenPdf::42                      0                       # What write queue length does an incoming req see
system.mem_ctrls.wrQLenPdf::43                      0                       # What write queue length does an incoming req see
system.mem_ctrls.wrQLenPdf::44                      0                       # What write queue length does an incoming req see
system.mem_ctrls.wrQLenPdf::45                      0                       # What write queue length does an incoming req see
system.mem_ctrls.wrQLenPdf::46                      0                       # What write queue length does an incoming req see
system.mem_ctrls.wrQLenPdf::47                      0                       # What write queue length does an incoming req see
system.mem_ctrls.wrQLenPdf::48                      0                       # What write queue length does an incoming req see
system.mem_ctrls.wrQLenPdf::49                      0                       # What write queue length does an incoming req see
system.mem_ctrls.wrQLenPdf::50                      0                       # What write queue length does an incoming req see
system.mem_ctrls.wrQLenPdf::51                      0                       # What write queue length does an incoming req see
system.mem_ctrls.wrQLenPdf::52                      0                       # What write queue length does an incoming req see
system.mem_ctrls.wrQLenPdf::53                      0                       # What write queue length does an incoming req see
system.mem_ctrls.wrQLenPdf::54                      0                       # What write queue length does an incoming req see
system.mem_ctrls.wrQLenPdf::55                      0                       # What write queue length does an incoming req see
system.mem_ctrls.wrQLenPdf::56                      0                       # What write queue length does an incoming req see
system.mem_ctrls.wrQLenPdf::57                      0                       # What write queue length does an incoming req see
system.mem_ctrls.wrQLenPdf::58                      0                       # What write queue length does an incoming req see
system.mem_ctrls.wrQLenPdf::59                      0                       # What write queue length does an incoming req see
system.mem_ctrls.wrQLenPdf::60                      0                       # What write queue length does an incoming req see
system.mem_ctrls.wrQLenPdf::61                      0                       # What write queue length does an incoming req see
system.mem_ctrls.wrQLenPdf::62                      0                       # What write queue length does an incoming req see
system.mem_ctrls.wrQLenPdf::63                      0                       # What write queue length does an incoming req see
system.mem_ctrls.bytesPerActivate::samples       859672                       # Bytes accessed per row activation
system.mem_ctrls.bytesPerActivate::mean    312.686252                       # Bytes accessed per row activation
system.mem_ctrls.bytesPerActivate::gmean   167.821244                       # Bytes accessed per row activation
system.mem_ctrls.bytesPerActivate::stdev   351.582162                       # Bytes accessed per row activation
system.mem_ctrls.bytesPerActivate::0-127       415252     48.30%     48.30% # Bytes accessed per row activation
system.mem_ctrls.bytesPerActivate::128-255       132808     15.45%     63.75% # Bytes accessed per row activation
system.mem_ctrls.bytesPerActivate::256-383        39460      4.59%     68.34% # Bytes accessed per row activation
system.mem_ctrls.bytesPerActivate::384-511        34921      4.06%     72.40% # Bytes accessed per row activation
system.mem_ctrls.bytesPerActivate::512-639        77440      9.01%     81.41% # Bytes accessed per row activation
system.mem_ctrls.bytesPerActivate::640-767        11668      1.36%     82.77% # Bytes accessed per row activation
system.mem_ctrls.bytesPerActivate::768-895         8924      1.04%     83.81% # Bytes accessed per row activation
system.mem_ctrls.bytesPerActivate::896-1023         9199      1.07%     84.88% # Bytes accessed per row activation
system.mem_ctrls.bytesPerActivate::1024-1151       130000     15.12%    100.00% # Bytes accessed per row activation
system.mem_ctrls.bytesPerActivate::total       859672                       # Bytes accessed per row activation
system.mem_ctrls.rdPerTurnAround::samples        88607                       # Reads before turning the bus around for writes
system.mem_ctrls.rdPerTurnAround::mean      31.041961                       # Reads before turning the bus around for writes
system.mem_ctrls.rdPerTurnAround::gmean     27.771828                       # Reads before turning the bus around for writes
system.mem_ctrls.rdPerTurnAround::stdev     93.234577                       # Reads before turning the bus around for writes
system.mem_ctrls.rdPerTurnAround::0-1023        88595     99.99%     99.99% # Reads before turning the bus around for writes
system.mem_ctrls.rdPerTurnAround::1024-2047            6      0.01%     99.99% # Reads before turning the bus around for writes
system.mem_ctrls.rdPerTurnAround::5120-6143            1      0.00%     99.99% # Reads before turning the bus around for writes
system.mem_ctrls.rdPerTurnAround::7168-8191            2      0.00%    100.00% # Reads before turning the bus around for writes
system.mem_ctrls.rdPerTurnAround::10240-11263            1      0.00%    100.00% # Reads before turning the bus around for writes
system.mem_ctrls.rdPerTurnAround::11264-12287            1      0.00%    100.00% # Reads before turning the bus around for writes
system.mem_ctrls.rdPerTurnAround::17408-18431            1      0.00%    100.00% # Reads before turning the bus around for writes
system.mem_ctrls.rdPerTurnAround::total         88607                       # Reads before turning the bus around for writes
system.mem_ctrls.wrPerTurnAround::samples        88607                       # Writes before turning the bus around for reads
system.mem_ctrls.wrPerTurnAround::mean      16.359238                       # Writes before turning the bus around for reads
system.mem_ctrls.wrPerTurnAround::gmean     16.342056                       # Writes before turning the bus around for reads
system.mem_ctrls.wrPerTurnAround::stdev      0.769455                       # Writes before turning the bus around for reads
system.mem_ctrls.wrPerTurnAround::16            72466     81.78%     81.78% # Writes before turning the bus around for reads
system.mem_ctrls.wrPerTurnAround::17              758      0.86%     82.64% # Writes before turning the bus around for reads
system.mem_ctrls.wrPerTurnAround::18            15095     17.04%     99.67% # Writes before turning the bus around for reads
system.mem_ctrls.wrPerTurnAround::19              277      0.31%     99.99% # Writes before turning the bus around for reads
system.mem_ctrls.wrPerTurnAround::20                8      0.01%    100.00% # Writes before turning the bus around for reads
system.mem_ctrls.wrPerTurnAround::22                2      0.00%    100.00% # Writes before turning the bus around for reads
system.mem_ctrls.wrPerTurnAround::24                1      0.00%    100.00% # Writes before turning the bus around for reads
system.mem_ctrls.wrPerTurnAround::total         88607                       # Writes before turning the bus around for reads
system.mem_ctrls.totQLat                  25693215250                       # Total ticks spent queuing
system.mem_ctrls.totMemAccLat             77266515250                       # Total ticks spent from burst creation until serviced by the DRAM
system.mem_ctrls.totBusLat                13752880000                       # Total ticks spent in databus transfers
system.mem_ctrls.avgQLat                      9341.03                       # Average queueing delay per DRAM burst
system.mem_ctrls.avgBusLat                    5000.00                       # Average bus latency per DRAM burst
system.mem_ctrls.avgMemAccLat                28091.03                       # Average memory access latency per DRAM burst
system.mem_ctrls.avgRdBW                       142.89                       # Average DRAM read bandwidth in MiByte/s
system.mem_ctrls.avgWrBW                        75.30                       # Average achieved write bandwidth in MiByte/s
system.mem_ctrls.avgRdBWSys                    143.04                       # Average system read bandwidth in MiByte/s
system.mem_ctrls.avgWrBWSys                     75.32                       # Average system write bandwidth in MiByte/s
system.mem_ctrls.peakBW                      12800.00                       # Theoretical peak bandwidth in MiByte/s
system.mem_ctrls.busUtil                         1.70                       # Data bus utilization in percentage
system.mem_ctrls.busUtilRead                     1.12                       # Data bus utilization in percentage for reads
system.mem_ctrls.busUtilWrite                    0.59                       # Data bus utilization in percentage for writes
system.mem_ctrls.avgRdQLen                       1.00                       # Average read queue length when enqueuing
system.mem_ctrls.avgWrQLen                      25.06                       # Average write queue length when enqueuing
system.mem_ctrls.readRowHits                  2166429                       # Number of row buffer hits during reads
system.mem_ctrls.writeRowHits                 1174018                       # Number of row buffer hits during writes
system.mem_ctrls.readRowHitRate                 78.76                       # Row buffer hit rate for reads
system.mem_ctrls.writeRowHitRate                80.99                       # Row buffer hit rate for writes
system.mem_ctrls.avgGap                     292069.58                       # Average gap between requests
system.mem_ctrls.pageHitRate                    79.53                       # Row buffer hit rate, read and write combined
system.mem_ctrls_0.actEnergy               3207133440                       # Energy for activate commands per rank (pJ)
system.mem_ctrls_0.preEnergy               1749924000                       # Energy for precharge commands per rank (pJ)
system.mem_ctrls_0.readEnergy             10672155000                       # Energy for read commands per rank (pJ)
system.mem_ctrls_0.writeEnergy             4686906240                       # Energy for write commands per rank (pJ)
system.mem_ctrls_0.refreshEnergy          80468940240                       # Energy for refresh commands per rank (pJ)
system.mem_ctrls_0.actBackEnergy         333615976875                       # Energy for active background per rank (pJ)
system.mem_ctrls_0.preBackEnergy         446560884750                       # Energy for precharge background per rank (pJ)
system.mem_ctrls_0.totalEnergy           880961920545                       # Total energy per rank (pJ)
system.mem_ctrls_0.averagePower            715.060227                       # Core power per rank (mW)
system.mem_ctrls_0.memoryStateTime::IDLE 740491300750                       # Time in different power states
system.mem_ctrls_0.memoryStateTime::REF   41139540000                       # Time in different power states
system.mem_ctrls_0.memoryStateTime::PRE_PDN            0                       # Time in different power states
system.mem_ctrls_0.memoryStateTime::ACT  450379970500                       # Time in different power states
system.mem_ctrls_0.memoryStateTime::ACT_PDN            0                       # Time in different power states
system.mem_ctrls_1.actEnergy               3291986880                       # Energy for activate commands per rank (pJ)
system.mem_ctrls_1.preEnergy               1796223000                       # Energy for precharge commands per rank (pJ)
system.mem_ctrls_1.readEnergy             10782337800                       # Energy for read commands per rank (pJ)
system.mem_ctrls_1.writeEnergy             4706132400                       # Energy for write commands per rank (pJ)
system.mem_ctrls_1.refreshEnergy          80468940240                       # Energy for refresh commands per rank (pJ)
system.mem_ctrls_1.actBackEnergy         341063212410                       # Energy for active background per rank (pJ)
system.mem_ctrls_1.preBackEnergy         440028222000                       # Energy for precharge background per rank (pJ)
system.mem_ctrls_1.totalEnergy           882137054730                       # Total energy per rank (pJ)
system.mem_ctrls_1.averagePower            716.014061                       # Core power per rank (mW)
system.mem_ctrls_1.memoryStateTime::IDLE 729561389500                       # Time in different power states
system.mem_ctrls_1.memoryStateTime::REF   41139540000                       # Time in different power states
system.mem_ctrls_1.memoryStateTime::PRE_PDN            0                       # Time in different power states
system.mem_ctrls_1.memoryStateTime::ACT  461309881750                       # Time in different power states
system.mem_ctrls_1.memoryStateTime::ACT_PDN            0                       # Time in different power states
system.cpu_voltage_domain.voltage                   1                       # Voltage in Volts
system.cpu_clk_domain.clock                       500                       # Clock period in ticks
system.cpu.apic_clk_domain.clock                 8000                       # Clock period in ticks
system.cpu.workload.num_syscalls                   89                       # Number of system calls
system.cpu.numCycles                       2464023051                       # number of cpu cycles simulated
system.cpu.numWorkItemsStarted                      0                       # number of work items this cpu started
system.cpu.numWorkItemsCompleted                    0                       # number of work items this cpu completed
system.cpu.committedInsts                   500000001                       # Number of instructions committed
system.cpu.committedOps                     728937824                       # Number of ops (including micro ops) committed
system.cpu.num_int_alu_accesses             727310589                       # Number of integer alu accesses
system.cpu.num_fp_alu_accesses                    843                       # Number of float alu accesses
system.cpu.num_func_calls                     1427761                       # number of times a function call or return occured
system.cpu.num_conditional_control_insts     32105501                       # number of instructions that are conditional controls
system.cpu.num_int_insts                    727310589                       # number of integer instructions
system.cpu.num_fp_insts                           843                       # number of float instructions
system.cpu.num_int_register_reads          1714991297                       # number of times the integer registers were read
system.cpu.num_int_register_writes          612733141                       # number of times the integer registers were written
system.cpu.num_fp_register_reads                 1319                       # number of times the floating registers were read
system.cpu.num_fp_register_writes                 577                       # number of times the floating registers were written
system.cpu.num_cc_register_reads            181720629                       # number of times the CC registers were read
system.cpu.num_cc_register_writes           264518979                       # number of times the CC registers were written
system.cpu.num_mem_refs                     304821783                       # number of memory refs
system.cpu.num_load_insts                   228115222                       # Number of load instructions
system.cpu.num_store_insts                   76706561                       # Number of store instructions
system.cpu.num_idle_cycles                          0                       # Number of idle cycles
system.cpu.num_busy_cycles                 2464023051                       # Number of busy cycles
system.cpu.not_idle_fraction                        1                       # Percentage of non-idle cycles
system.cpu.idle_fraction                            0                       # Percentage of idle cycles
system.cpu.Branches                          38073397                       # Number of branches fetched
system.cpu.op_class::No_OpClass                960306      0.13%      0.13% # Class of executed instruction
system.cpu.op_class::IntAlu                 423024114     58.03%     58.16% # Class of executed instruction
system.cpu.op_class::IntMult                   130951      0.02%     58.18% # Class of executed instruction
system.cpu.op_class::IntDiv                       140      0.00%     58.18% # Class of executed instruction
system.cpu.op_class::FloatAdd                     530      0.00%     58.18% # Class of executed instruction
system.cpu.op_class::FloatCmp                       0      0.00%     58.18% # Class of executed instruction
system.cpu.op_class::FloatCvt                       0      0.00%     58.18% # Class of executed instruction
system.cpu.op_class::FloatMult                      0      0.00%     58.18% # Class of executed instruction
system.cpu.op_class::FloatDiv                       0      0.00%     58.18% # Class of executed instruction
system.cpu.op_class::FloatSqrt                      0      0.00%     58.18% # Class of executed instruction
system.cpu.op_class::SimdAdd                        0      0.00%     58.18% # Class of executed instruction
system.cpu.op_class::SimdAddAcc                     0      0.00%     58.18% # Class of executed instruction
system.cpu.op_class::SimdAlu                        0      0.00%     58.18% # Class of executed instruction
system.cpu.op_class::SimdCmp                        0      0.00%     58.18% # Class of executed instruction
system.cpu.op_class::SimdCvt                        0      0.00%     58.18% # Class of executed instruction
system.cpu.op_class::SimdMisc                       0      0.00%     58.18% # Class of executed instruction
system.cpu.op_class::SimdMult                       0      0.00%     58.18% # Class of executed instruction
system.cpu.op_class::SimdMultAcc                    0      0.00%     58.18% # Class of executed instruction
system.cpu.op_class::SimdShift                      0      0.00%     58.18% # Class of executed instruction
system.cpu.op_class::SimdShiftAcc                   0      0.00%     58.18% # Class of executed instruction
system.cpu.op_class::SimdSqrt                       0      0.00%     58.18% # Class of executed instruction
system.cpu.op_class::SimdFloatAdd                   0      0.00%     58.18% # Class of executed instruction
system.cpu.op_class::SimdFloatAlu                   0      0.00%     58.18% # Class of executed instruction
system.cpu.op_class::SimdFloatCmp                   0      0.00%     58.18% # Class of executed instruction
system.cpu.op_class::SimdFloatCvt                   0      0.00%     58.18% # Class of executed instruction
system.cpu.op_class::SimdFloatDiv                   0      0.00%     58.18% # Class of executed instruction
system.cpu.op_class::SimdFloatMisc                  0      0.00%     58.18% # Class of executed instruction
system.cpu.op_class::SimdFloatMult                  0      0.00%     58.18% # Class of executed instruction
system.cpu.op_class::SimdFloatMultAcc               0      0.00%     58.18% # Class of executed instruction
system.cpu.op_class::SimdFloatSqrt                  0      0.00%     58.18% # Class of executed instruction
system.cpu.op_class::MemRead                228115222     31.29%     89.48% # Class of executed instruction
system.cpu.op_class::MemWrite                76706561     10.52%    100.00% # Class of executed instruction
system.cpu.op_class::IprAccess                      0      0.00%    100.00% # Class of executed instruction
system.cpu.op_class::InstPrefetch                   0      0.00%    100.00% # Class of executed instruction
system.cpu.op_class::total                  728937824                       # Class of executed instruction
system.cpu.dcache.tags.replacements           4905391                       # number of replacements
system.cpu.dcache.tags.tagsinuse          1009.707833                       # Cycle average of tags in use
system.cpu.dcache.tags.total_refs           299915378                       # Total number of references to valid blocks.
system.cpu.dcache.tags.sampled_refs           4906415                       # Sample count of references to valid blocks.
system.cpu.dcache.tags.avg_refs             61.127193                       # Average number of references to valid blocks.
system.cpu.dcache.tags.warmup_cycle       21723601500                       # Cycle when the warmup percentage was hit.
system.cpu.dcache.tags.occ_blocks::cpu.data  1009.707833                       # Average occupied blocks per requestor
system.cpu.dcache.tags.occ_percent::cpu.data     0.986043                       # Average percentage of cache occupancy
system.cpu.dcache.tags.occ_percent::total     0.986043                       # Average percentage of cache occupancy
system.cpu.dcache.tags.occ_task_id_blocks::1024         1024                       # Occupied blocks per task id
system.cpu.dcache.tags.age_task_id_blocks_1024::0            3                       # Occupied blocks per task id
system.cpu.dcache.tags.age_task_id_blocks_1024::1           36                       # Occupied blocks per task id
system.cpu.dcache.tags.age_task_id_blocks_1024::2          245                       # Occupied blocks per task id
system.cpu.dcache.tags.age_task_id_blocks_1024::3          740                       # Occupied blocks per task id
system.cpu.dcache.tags.occ_task_id_percent::1024            1                       # Percentage of cache occupancy per task id
system.cpu.dcache.tags.tag_accesses         309728208                       # Number of tag accesses
system.cpu.dcache.tags.data_accesses        309728208                       # Number of data accesses
system.cpu.dcache.ReadReq_hits::cpu.data    224955227                       # number of ReadReq hits
system.cpu.dcache.ReadReq_hits::total       224955227                       # number of ReadReq hits
system.cpu.dcache.WriteReq_hits::cpu.data     74960151                       # number of WriteReq hits
system.cpu.dcache.WriteReq_hits::total       74960151                       # number of WriteReq hits
system.cpu.dcache.demand_hits::cpu.data     299915378                       # number of demand (read+write) hits
system.cpu.dcache.demand_hits::total        299915378                       # number of demand (read+write) hits
system.cpu.dcache.overall_hits::cpu.data    299915378                       # number of overall hits
system.cpu.dcache.overall_hits::total       299915378                       # number of overall hits
system.cpu.dcache.ReadReq_misses::cpu.data      3094469                       # number of ReadReq misses
system.cpu.dcache.ReadReq_misses::total       3094469                       # number of ReadReq misses
system.cpu.dcache.WriteReq_misses::cpu.data      1746410                       # number of WriteReq misses
system.cpu.dcache.WriteReq_misses::total      1746410                       # number of WriteReq misses
system.cpu.dcache.SoftPFReq_misses::cpu.data        65536                       # number of SoftPFReq misses
system.cpu.dcache.SoftPFReq_misses::total        65536                       # number of SoftPFReq misses
system.cpu.dcache.demand_misses::cpu.data      4840879                       # number of demand (read+write) misses
system.cpu.dcache.demand_misses::total        4840879                       # number of demand (read+write) misses
system.cpu.dcache.overall_misses::cpu.data      4906415                       # number of overall misses
system.cpu.dcache.overall_misses::total       4906415                       # number of overall misses
system.cpu.dcache.ReadReq_miss_latency::cpu.data 128213196000                       # number of ReadReq miss cycles
system.cpu.dcache.ReadReq_miss_latency::total 128213196000                       # number of ReadReq miss cycles
system.cpu.dcache.WriteReq_miss_latency::cpu.data 115351914000                       # number of WriteReq miss cycles
system.cpu.dcache.WriteReq_miss_latency::total 115351914000                       # number of WriteReq miss cycles
system.cpu.dcache.demand_miss_latency::cpu.data 243565110000                       # number of demand (read+write) miss cycles
system.cpu.dcache.demand_miss_latency::total 243565110000                       # number of demand (read+write) miss cycles
system.cpu.dcache.overall_miss_latency::cpu.data 243565110000                       # number of overall miss cycles
system.cpu.dcache.overall_miss_latency::total 243565110000                       # number of overall miss cycles
system.cpu.dcache.ReadReq_accesses::cpu.data    228049696                       # number of ReadReq accesses(hits+misses)
system.cpu.dcache.ReadReq_accesses::total    228049696                       # number of ReadReq accesses(hits+misses)
system.cpu.dcache.WriteReq_accesses::cpu.data     76706561                       # number of WriteReq accesses(hits+misses)
system.cpu.dcache.WriteReq_accesses::total     76706561                       # number of WriteReq accesses(hits+misses)
system.cpu.dcache.SoftPFReq_accesses::cpu.data        65536                       # number of SoftPFReq accesses(hits+misses)
system.cpu.dcache.SoftPFReq_accesses::total        65536                       # number of SoftPFReq accesses(hits+misses)
system.cpu.dcache.demand_accesses::cpu.data    304756257                       # number of demand (read+write) accesses
system.cpu.dcache.demand_accesses::total    304756257                       # number of demand (read+write) accesses
system.cpu.dcache.overall_accesses::cpu.data    304821793                       # number of overall (read+write) accesses
system.cpu.dcache.overall_accesses::total    304821793                       # number of overall (read+write) accesses
system.cpu.dcache.ReadReq_miss_rate::cpu.data     0.013569                       # miss rate for ReadReq accesses
system.cpu.dcache.ReadReq_miss_rate::total     0.013569                       # miss rate for ReadReq accesses
system.cpu.dcache.WriteReq_miss_rate::cpu.data     0.022767                       # miss rate for WriteReq accesses
system.cpu.dcache.WriteReq_miss_rate::total     0.022767                       # miss rate for WriteReq accesses
system.cpu.dcache.SoftPFReq_miss_rate::cpu.data            1                       # miss rate for SoftPFReq accesses
system.cpu.dcache.SoftPFReq_miss_rate::total            1                       # miss rate for SoftPFReq accesses
system.cpu.dcache.demand_miss_rate::cpu.data     0.015884                       # miss rate for demand accesses
system.cpu.dcache.demand_miss_rate::total     0.015884                       # miss rate for demand accesses
system.cpu.dcache.overall_miss_rate::cpu.data     0.016096                       # miss rate for overall accesses
system.cpu.dcache.overall_miss_rate::total     0.016096                       # miss rate for overall accesses
system.cpu.dcache.ReadReq_avg_miss_latency::cpu.data 41433.020011                       # average ReadReq miss latency
system.cpu.dcache.ReadReq_avg_miss_latency::total 41433.020011                       # average ReadReq miss latency
system.cpu.dcache.WriteReq_avg_miss_latency::cpu.data 66050.878087                       # average WriteReq miss latency
system.cpu.dcache.WriteReq_avg_miss_latency::total 66050.878087                       # average WriteReq miss latency
system.cpu.dcache.demand_avg_miss_latency::cpu.data 50314.232188                       # average overall miss latency
system.cpu.dcache.demand_avg_miss_latency::total 50314.232188                       # average overall miss latency
system.cpu.dcache.overall_avg_miss_latency::cpu.data 49642.174582                       # average overall miss latency
system.cpu.dcache.overall_avg_miss_latency::total 49642.174582                       # average overall miss latency
system.cpu.dcache.blocked_cycles::no_mshrs      1202111                       # number of cycles access was blocked
system.cpu.dcache.blocked_cycles::no_targets            0                       # number of cycles access was blocked
system.cpu.dcache.blocked::no_mshrs             19985                       # number of cycles access was blocked
system.cpu.dcache.blocked::no_targets               0                       # number of cycles access was blocked
system.cpu.dcache.avg_blocked_cycles::no_mshrs    60.150663                       # average number of cycles each access was blocked
system.cpu.dcache.avg_blocked_cycles::no_targets          nan                       # average number of cycles each access was blocked
system.cpu.dcache.fast_writes                       0                       # number of fast writes performed
system.cpu.dcache.cache_copies                      0                       # number of cache copies performed
system.cpu.dcache.writebacks::writebacks      2500535                       # number of writebacks
system.cpu.dcache.writebacks::total           2500535                       # number of writebacks
system.cpu.dcache.ReadReq_mshr_misses::cpu.data      3094469                       # number of ReadReq MSHR misses
system.cpu.dcache.ReadReq_mshr_misses::total      3094469                       # number of ReadReq MSHR misses
system.cpu.dcache.WriteReq_mshr_misses::cpu.data      1746410                       # number of WriteReq MSHR misses
system.cpu.dcache.WriteReq_mshr_misses::total      1746410                       # number of WriteReq MSHR misses
system.cpu.dcache.SoftPFReq_mshr_misses::cpu.data        65536                       # number of SoftPFReq MSHR misses
system.cpu.dcache.SoftPFReq_mshr_misses::total        65536                       # number of SoftPFReq MSHR misses
system.cpu.dcache.demand_mshr_misses::cpu.data      4840879                       # number of demand (read+write) MSHR misses
system.cpu.dcache.demand_mshr_misses::total      4840879                       # number of demand (read+write) MSHR misses
system.cpu.dcache.overall_mshr_misses::cpu.data      4906415                       # number of overall MSHR misses
system.cpu.dcache.overall_mshr_misses::total      4906415                       # number of overall MSHR misses
system.cpu.dcache.ReadReq_mshr_miss_latency::cpu.data 125118727000                       # number of ReadReq MSHR miss cycles
system.cpu.dcache.ReadReq_mshr_miss_latency::total 125118727000                       # number of ReadReq MSHR miss cycles
system.cpu.dcache.WriteReq_mshr_miss_latency::cpu.data 113605504000                       # number of WriteReq MSHR miss cycles
system.cpu.dcache.WriteReq_mshr_miss_latency::total 113605504000                       # number of WriteReq MSHR miss cycles
system.cpu.dcache.SoftPFReq_mshr_miss_latency::cpu.data   5615072385                       # number of SoftPFReq MSHR miss cycles
system.cpu.dcache.SoftPFReq_mshr_miss_latency::total   5615072385                       # number of SoftPFReq MSHR miss cycles
system.cpu.dcache.demand_mshr_miss_latency::cpu.data 238724231000                       # number of demand (read+write) MSHR miss cycles
system.cpu.dcache.demand_mshr_miss_latency::total 238724231000                       # number of demand (read+write) MSHR miss cycles
system.cpu.dcache.overall_mshr_miss_latency::cpu.data 244339303385                       # number of overall MSHR miss cycles
system.cpu.dcache.overall_mshr_miss_latency::total 244339303385                       # number of overall MSHR miss cycles
system.cpu.dcache.ReadReq_mshr_miss_rate::cpu.data     0.013569                       # mshr miss rate for ReadReq accesses
system.cpu.dcache.ReadReq_mshr_miss_rate::total     0.013569                       # mshr miss rate for ReadReq accesses
system.cpu.dcache.WriteReq_mshr_miss_rate::cpu.data     0.022767                       # mshr miss rate for WriteReq accesses
system.cpu.dcache.WriteReq_mshr_miss_rate::total     0.022767                       # mshr miss rate for WriteReq accesses
system.cpu.dcache.SoftPFReq_mshr_miss_rate::cpu.data            1                       # mshr miss rate for SoftPFReq accesses
system.cpu.dcache.SoftPFReq_mshr_miss_rate::total            1                       # mshr miss rate for SoftPFReq accesses
system.cpu.dcache.demand_mshr_miss_rate::cpu.data     0.015884                       # mshr miss rate for demand accesses
system.cpu.dcache.demand_mshr_miss_rate::total     0.015884                       # mshr miss rate for demand accesses
system.cpu.dcache.overall_mshr_miss_rate::cpu.data     0.016096                       # mshr miss rate for overall accesses
system.cpu.dcache.overall_mshr_miss_rate::total     0.016096                       # mshr miss rate for overall accesses
system.cpu.dcache.ReadReq_avg_mshr_miss_latency::cpu.data 40433.020011                       # average ReadReq mshr miss latency
system.cpu.dcache.ReadReq_avg_mshr_miss_latency::total 40433.020011                       # average ReadReq mshr miss latency
system.cpu.dcache.WriteReq_avg_mshr_miss_latency::cpu.data 65050.878087                       # average WriteReq mshr miss latency
system.cpu.dcache.WriteReq_avg_mshr_miss_latency::total 65050.878087                       # average WriteReq mshr miss latency
system.cpu.dcache.SoftPFReq_avg_mshr_miss_latency::cpu.data 85679.205093                       # average SoftPFReq mshr miss latency
system.cpu.dcache.SoftPFReq_avg_mshr_miss_latency::total 85679.205093                       # average SoftPFReq mshr miss latency
system.cpu.dcache.demand_avg_mshr_miss_latency::cpu.data 49314.232188                       # average overall mshr miss latency
system.cpu.dcache.demand_avg_mshr_miss_latency::total 49314.232188                       # average overall mshr miss latency
system.cpu.dcache.overall_avg_mshr_miss_latency::cpu.data 49799.966653                       # average overall mshr miss latency
system.cpu.dcache.overall_avg_mshr_miss_latency::total 49799.966653                       # average overall mshr miss latency
system.cpu.dcache.no_allocate_misses                0                       # Number of misses that were no-allocate
system.cpu.dtb_walker_cache.tags.replacements            0                       # number of replacements
system.cpu.dtb_walker_cache.tags.tagsinuse            0                       # Cycle average of tags in use
system.cpu.dtb_walker_cache.tags.total_refs            0                       # Total number of references to valid blocks.
system.cpu.dtb_walker_cache.tags.sampled_refs            0                       # Sample count of references to valid blocks.
system.cpu.dtb_walker_cache.tags.avg_refs          nan                       # Average number of references to valid blocks.
system.cpu.dtb_walker_cache.tags.warmup_cycle            0                       # Cycle when the warmup percentage was hit.
system.cpu.dtb_walker_cache.tags.tag_accesses            0                       # Number of tag accesses
system.cpu.dtb_walker_cache.tags.data_accesses            0                       # Number of data accesses
system.cpu.dtb_walker_cache.blocked_cycles::no_mshrs            0                       # number of cycles access was blocked
system.cpu.dtb_walker_cache.blocked_cycles::no_targets            0                       # number of cycles access was blocked
system.cpu.dtb_walker_cache.blocked::no_mshrs            0                       # number of cycles access was blocked
system.cpu.dtb_walker_cache.blocked::no_targets            0                       # number of cycles access was blocked
system.cpu.dtb_walker_cache.avg_blocked_cycles::no_mshrs          nan                       # average number of cycles each access was blocked
system.cpu.dtb_walker_cache.avg_blocked_cycles::no_targets          nan                       # average number of cycles each access was blocked
system.cpu.dtb_walker_cache.fast_writes             0                       # number of fast writes performed
system.cpu.dtb_walker_cache.cache_copies            0                       # number of cache copies performed
system.cpu.dtb_walker_cache.no_allocate_misses            0                       # Number of misses that were no-allocate
system.cpu.icache.tags.replacements               119                       # number of replacements
system.cpu.icache.tags.tagsinuse           574.911002                       # Cycle average of tags in use
system.cpu.icache.tags.total_refs           687817820                       # Total number of references to valid blocks.
system.cpu.icache.tags.sampled_refs               985                       # Sample count of references to valid blocks.
system.cpu.icache.tags.avg_refs          698292.203046                       # Average number of references to valid blocks.
system.cpu.icache.tags.warmup_cycle                 0                       # Cycle when the warmup percentage was hit.
system.cpu.icache.tags.occ_blocks::cpu.inst   574.911002                       # Average occupied blocks per requestor
system.cpu.icache.tags.occ_percent::cpu.inst     0.280718                       # Average percentage of cache occupancy
system.cpu.icache.tags.occ_percent::total     0.280718                       # Average percentage of cache occupancy
system.cpu.icache.tags.occ_task_id_blocks::1024          866                       # Occupied blocks per task id
system.cpu.icache.tags.age_task_id_blocks_1024::4          866                       # Occupied blocks per task id
system.cpu.icache.tags.occ_task_id_percent::1024     0.422852                       # Percentage of cache occupancy per task id
system.cpu.icache.tags.tag_accesses         687819790                       # Number of tag accesses
system.cpu.icache.tags.data_accesses        687819790                       # Number of data accesses
system.cpu.icache.ReadReq_hits::cpu.inst    687817820                       # number of ReadReq hits
system.cpu.icache.ReadReq_hits::total       687817820                       # number of ReadReq hits
system.cpu.icache.demand_hits::cpu.inst     687817820                       # number of demand (read+write) hits
system.cpu.icache.demand_hits::total        687817820                       # number of demand (read+write) hits
system.cpu.icache.overall_hits::cpu.inst    687817820                       # number of overall hits
system.cpu.icache.overall_hits::total       687817820                       # number of overall hits
system.cpu.icache.ReadReq_misses::cpu.inst          985                       # number of ReadReq misses
system.cpu.icache.ReadReq_misses::total           985                       # number of ReadReq misses
system.cpu.icache.demand_misses::cpu.inst          985                       # number of demand (read+write) misses
system.cpu.icache.demand_misses::total            985                       # number of demand (read+write) misses
system.cpu.icache.overall_misses::cpu.inst          985                       # number of overall misses
system.cpu.icache.overall_misses::total           985                       # number of overall misses
system.cpu.icache.ReadReq_miss_latency::cpu.inst     76618500                       # number of ReadReq miss cycles
system.cpu.icache.ReadReq_miss_latency::total     76618500                       # number of ReadReq miss cycles
system.cpu.icache.demand_miss_latency::cpu.inst     76618500                       # number of demand (read+write) miss cycles
system.cpu.icache.demand_miss_latency::total     76618500                       # number of demand (read+write) miss cycles
system.cpu.icache.overall_miss_latency::cpu.inst     76618500                       # number of overall miss cycles
system.cpu.icache.overall_miss_latency::total     76618500                       # number of overall miss cycles
system.cpu.icache.ReadReq_accesses::cpu.inst    687818805                       # number of ReadReq accesses(hits+misses)
system.cpu.icache.ReadReq_accesses::total    687818805                       # number of ReadReq accesses(hits+misses)
system.cpu.icache.demand_accesses::cpu.inst    687818805                       # number of demand (read+write) accesses
system.cpu.icache.demand_accesses::total    687818805                       # number of demand (read+write) accesses
system.cpu.icache.overall_accesses::cpu.inst    687818805                       # number of overall (read+write) accesses
system.cpu.icache.overall_accesses::total    687818805                       # number of overall (read+write) accesses
system.cpu.icache.ReadReq_miss_rate::cpu.inst     0.000001                       # miss rate for ReadReq accesses
system.cpu.icache.ReadReq_miss_rate::total     0.000001                       # miss rate for ReadReq accesses
system.cpu.icache.demand_miss_rate::cpu.inst     0.000001                       # miss rate for demand accesses
system.cpu.icache.demand_miss_rate::total     0.000001                       # miss rate for demand accesses
system.cpu.icache.overall_miss_rate::cpu.inst     0.000001                       # miss rate for overall accesses
system.cpu.icache.overall_miss_rate::total     0.000001                       # miss rate for overall accesses
system.cpu.icache.ReadReq_avg_miss_latency::cpu.inst 77785.279188                       # average ReadReq miss latency
system.cpu.icache.ReadReq_avg_miss_latency::total 77785.279188                       # average ReadReq miss latency
system.cpu.icache.demand_avg_miss_latency::cpu.inst 77785.279188                       # average overall miss latency
system.cpu.icache.demand_avg_miss_latency::total 77785.279188                       # average overall miss latency
system.cpu.icache.overall_avg_miss_latency::cpu.inst 77785.279188                       # average overall miss latency
system.cpu.icache.overall_avg_miss_latency::total 77785.279188                       # average overall miss latency
system.cpu.icache.blocked_cycles::no_mshrs            0                       # number of cycles access was blocked
system.cpu.icache.blocked_cycles::no_targets            0                       # number of cycles access was blocked
system.cpu.icache.blocked::no_mshrs                 0                       # number of cycles access was blocked
system.cpu.icache.blocked::no_targets               0                       # number of cycles access was blocked
system.cpu.icache.avg_blocked_cycles::no_mshrs          nan                       # average number of cycles each access was blocked
system.cpu.icache.avg_blocked_cycles::no_targets          nan                       # average number of cycles each access was blocked
system.cpu.icache.fast_writes                       0                       # number of fast writes performed
system.cpu.icache.cache_copies                      0                       # number of cache copies performed
system.cpu.icache.writebacks::writebacks          119                       # number of writebacks
system.cpu.icache.writebacks::total               119                       # number of writebacks
system.cpu.icache.ReadReq_mshr_misses::cpu.inst          985                       # number of ReadReq MSHR misses
system.cpu.icache.ReadReq_mshr_misses::total          985                       # number of ReadReq MSHR misses
system.cpu.icache.demand_mshr_misses::cpu.inst          985                       # number of demand (read+write) MSHR misses
system.cpu.icache.demand_mshr_misses::total          985                       # number of demand (read+write) MSHR misses
system.cpu.icache.overall_mshr_misses::cpu.inst          985                       # number of overall MSHR misses
system.cpu.icache.overall_mshr_misses::total          985                       # number of overall MSHR misses
system.cpu.icache.ReadReq_mshr_miss_latency::cpu.inst     75633500                       # number of ReadReq MSHR miss cycles
system.cpu.icache.ReadReq_mshr_miss_latency::total     75633500                       # number of ReadReq MSHR miss cycles
system.cpu.icache.demand_mshr_miss_latency::cpu.inst     75633500                       # number of demand (read+write) MSHR miss cycles
system.cpu.icache.demand_mshr_miss_latency::total     75633500                       # number of demand (read+write) MSHR miss cycles
system.cpu.icache.overall_mshr_miss_latency::cpu.inst     75633500                       # number of overall MSHR miss cycles
system.cpu.icache.overall_mshr_miss_latency::total     75633500                       # number of overall MSHR miss cycles
system.cpu.icache.ReadReq_mshr_miss_rate::cpu.inst     0.000001                       # mshr miss rate for ReadReq accesses
system.cpu.icache.ReadReq_mshr_miss_rate::total     0.000001                       # mshr miss rate for ReadReq accesses
system.cpu.icache.demand_mshr_miss_rate::cpu.inst     0.000001                       # mshr miss rate for demand accesses
system.cpu.icache.demand_mshr_miss_rate::total     0.000001                       # mshr miss rate for demand accesses
system.cpu.icache.overall_mshr_miss_rate::cpu.inst     0.000001                       # mshr miss rate for overall accesses
system.cpu.icache.overall_mshr_miss_rate::total     0.000001                       # mshr miss rate for overall accesses
system.cpu.icache.ReadReq_avg_mshr_miss_latency::cpu.inst 76785.279188                       # average ReadReq mshr miss latency
system.cpu.icache.ReadReq_avg_mshr_miss_latency::total 76785.279188                       # average ReadReq mshr miss latency
system.cpu.icache.demand_avg_mshr_miss_latency::cpu.inst 76785.279188                       # average overall mshr miss latency
system.cpu.icache.demand_avg_mshr_miss_latency::total 76785.279188                       # average overall mshr miss latency
system.cpu.icache.overall_avg_mshr_miss_latency::cpu.inst 76785.279188                       # average overall mshr miss latency
system.cpu.icache.overall_avg_mshr_miss_latency::total 76785.279188                       # average overall mshr miss latency
system.cpu.icache.no_allocate_misses                0                       # Number of misses that were no-allocate
system.cpu.itb_walker_cache.tags.replacements            0                       # number of replacements
system.cpu.itb_walker_cache.tags.tagsinuse            0                       # Cycle average of tags in use
system.cpu.itb_walker_cache.tags.total_refs            0                       # Total number of references to valid blocks.
system.cpu.itb_walker_cache.tags.sampled_refs            0                       # Sample count of references to valid blocks.
system.cpu.itb_walker_cache.tags.avg_refs          nan                       # Average number of references to valid blocks.
system.cpu.itb_walker_cache.tags.warmup_cycle            0                       # Cycle when the warmup percentage was hit.
system.cpu.itb_walker_cache.tags.tag_accesses            0                       # Number of tag accesses
system.cpu.itb_walker_cache.tags.data_accesses            0                       # Number of data accesses
system.cpu.itb_walker_cache.blocked_cycles::no_mshrs            0                       # number of cycles access was blocked
system.cpu.itb_walker_cache.blocked_cycles::no_targets            0                       # number of cycles access was blocked
system.cpu.itb_walker_cache.blocked::no_mshrs            0                       # number of cycles access was blocked
system.cpu.itb_walker_cache.blocked::no_targets            0                       # number of cycles access was blocked
system.cpu.itb_walker_cache.avg_blocked_cycles::no_mshrs          nan                       # average number of cycles each access was blocked
system.cpu.itb_walker_cache.avg_blocked_cycles::no_targets          nan                       # average number of cycles each access was blocked
system.cpu.itb_walker_cache.fast_writes             0                       # number of fast writes performed
system.cpu.itb_walker_cache.cache_copies            0                       # number of cache copies performed
system.cpu.itb_walker_cache.no_allocate_misses            0                       # Number of misses that were no-allocate
system.l2.tags.replacements                   2755226                       # number of replacements
system.l2.tags.tagsinuse                 15777.064371                       # Cycle average of tags in use
system.l2.tags.total_refs                     5203266                       # Total number of references to valid blocks.
system.l2.tags.sampled_refs                   2771568                       # Sample count of references to valid blocks.
system.l2.tags.avg_refs                      1.877373                       # Average number of references to valid blocks.
system.l2.tags.warmup_cycle               45316914500                       # Cycle when the warmup percentage was hit.
system.l2.tags.occ_blocks::writebacks     7710.118200                       # Average occupied blocks per requestor
system.l2.tags.occ_blocks::cpu.inst          7.630001                       # Average occupied blocks per requestor
system.l2.tags.occ_blocks::cpu.data       8059.316170                       # Average occupied blocks per requestor
system.l2.tags.occ_percent::writebacks       0.470588                       # Average percentage of cache occupancy
system.l2.tags.occ_percent::cpu.inst         0.000466                       # Average percentage of cache occupancy
system.l2.tags.occ_percent::cpu.data         0.491902                       # Average percentage of cache occupancy
system.l2.tags.occ_percent::total            0.962956                       # Average percentage of cache occupancy
system.l2.tags.occ_task_id_blocks::1024         16342                       # Occupied blocks per task id
system.l2.tags.age_task_id_blocks_1024::2            6                       # Occupied blocks per task id
system.l2.tags.age_task_id_blocks_1024::3          101                       # Occupied blocks per task id
system.l2.tags.age_task_id_blocks_1024::4        16235                       # Occupied blocks per task id
system.l2.tags.occ_task_id_percent::1024     0.997437                       # Percentage of cache occupancy per task id
system.l2.tags.tag_accesses                  14330887                       # Number of tag accesses
system.l2.tags.data_accesses                 14330887                       # Number of data accesses
system.l2.WritebackDirty_hits::writebacks      2500535                       # number of WritebackDirty hits
system.l2.WritebackDirty_hits::total          2500535                       # number of WritebackDirty hits
system.l2.WritebackClean_hits::writebacks          119                       # number of WritebackClean hits
system.l2.WritebackClean_hits::total              119                       # number of WritebackClean hits
system.l2.ReadExReq_hits::cpu.data             405528                       # number of ReadExReq hits
system.l2.ReadExReq_hits::total                405528                       # number of ReadExReq hits
system.l2.ReadCleanReq_hits::cpu.inst              18                       # number of ReadCleanReq hits
system.l2.ReadCleanReq_hits::total                 18                       # number of ReadCleanReq hits
system.l2.ReadSharedReq_hits::cpu.data        1748347                       # number of ReadSharedReq hits
system.l2.ReadSharedReq_hits::total           1748347                       # number of ReadSharedReq hits
system.l2.demand_hits::cpu.inst                    18                       # number of demand (read+write) hits
system.l2.demand_hits::cpu.data               2153875                       # number of demand (read+write) hits
system.l2.demand_hits::total                  2153893                       # number of demand (read+write) hits
system.l2.overall_hits::cpu.inst                   18                       # number of overall hits
system.l2.overall_hits::cpu.data              2153875                       # number of overall hits
system.l2.overall_hits::total                 2153893                       # number of overall hits
system.l2.ReadExReq_misses::cpu.data          1340882                       # number of ReadExReq misses
system.l2.ReadExReq_misses::total             1340882                       # number of ReadExReq misses
system.l2.ReadCleanReq_misses::cpu.inst           967                       # number of ReadCleanReq misses
system.l2.ReadCleanReq_misses::total              967                       # number of ReadCleanReq misses
system.l2.ReadSharedReq_misses::cpu.data      1411658                       # number of ReadSharedReq misses
system.l2.ReadSharedReq_misses::total         1411658                       # number of ReadSharedReq misses
system.l2.demand_misses::cpu.inst                 967                       # number of demand (read+write) misses
system.l2.demand_misses::cpu.data             2752540                       # number of demand (read+write) misses
system.l2.demand_misses::total                2753507                       # number of demand (read+write) misses
system.l2.overall_misses::cpu.inst                967                       # number of overall misses
system.l2.overall_misses::cpu.data            2752540                       # number of overall misses
system.l2.overall_misses::total               2753507                       # number of overall misses
system.l2.ReadExReq_miss_latency::cpu.data 106727691500                       # number of ReadExReq miss cycles
system.l2.ReadExReq_miss_latency::total  106727691500                       # number of ReadExReq miss cycles
system.l2.ReadCleanReq_miss_latency::cpu.inst     73966000                       # number of ReadCleanReq miss cycles
system.l2.ReadCleanReq_miss_latency::total     73966000                       # number of ReadCleanReq miss cycles
system.l2.ReadSharedReq_miss_latency::cpu.data 107629095000                       # number of ReadSharedReq miss cycles
system.l2.ReadSharedReq_miss_latency::total 107629095000                       # number of ReadSharedReq miss cycles
system.l2.demand_miss_latency::cpu.inst      73966000                       # number of demand (read+write) miss cycles
system.l2.demand_miss_latency::cpu.data  214356786500                       # number of demand (read+write) miss cycles
system.l2.demand_miss_latency::total     214430752500                       # number of demand (read+write) miss cycles
system.l2.overall_miss_latency::cpu.inst     73966000                       # number of overall miss cycles
system.l2.overall_miss_latency::cpu.data 214356786500                       # number of overall miss cycles
system.l2.overall_miss_latency::total    214430752500                       # number of overall miss cycles
system.l2.WritebackDirty_accesses::writebacks      2500535                       # number of WritebackDirty accesses(hits+misses)
system.l2.WritebackDirty_accesses::total      2500535                       # number of WritebackDirty accesses(hits+misses)
system.l2.WritebackClean_accesses::writebacks          119                       # number of WritebackClean accesses(hits+misses)
system.l2.WritebackClean_accesses::total          119                       # number of WritebackClean accesses(hits+misses)
system.l2.ReadExReq_accesses::cpu.data        1746410                       # number of ReadExReq accesses(hits+misses)
system.l2.ReadExReq_accesses::total           1746410                       # number of ReadExReq accesses(hits+misses)
system.l2.ReadCleanReq_accesses::cpu.inst          985                       # number of ReadCleanReq accesses(hits+misses)
system.l2.ReadCleanReq_accesses::total            985                       # number of ReadCleanReq accesses(hits+misses)
system.l2.ReadSharedReq_accesses::cpu.data      3160005                       # number of ReadSharedReq accesses(hits+misses)
system.l2.ReadSharedReq_accesses::total       3160005                       # number of ReadSharedReq accesses(hits+misses)
system.l2.demand_accesses::cpu.inst               985                       # number of demand (read+write) accesses
system.l2.demand_accesses::cpu.data           4906415                       # number of demand (read+write) accesses
system.l2.demand_accesses::total              4907400                       # number of demand (read+write) accesses
system.l2.overall_accesses::cpu.inst              985                       # number of overall (read+write) accesses
system.l2.overall_accesses::cpu.data          4906415                       # number of overall (read+write) accesses
system.l2.overall_accesses::total             4907400                       # number of overall (read+write) accesses
system.l2.ReadExReq_miss_rate::cpu.data      0.767793                       # miss rate for ReadExReq accesses
system.l2.ReadExReq_miss_rate::total         0.767793                       # miss rate for ReadExReq accesses
system.l2.ReadCleanReq_miss_rate::cpu.inst     0.981726                       # miss rate for ReadCleanReq accesses
system.l2.ReadCleanReq_miss_rate::total      0.981726                       # miss rate for ReadCleanReq accesses
system.l2.ReadSharedReq_miss_rate::cpu.data     0.446727                       # miss rate for ReadSharedReq accesses
system.l2.ReadSharedReq_miss_rate::total     0.446727                       # miss rate for ReadSharedReq accesses
system.l2.demand_miss_rate::cpu.inst         0.981726                       # miss rate for demand accesses
system.l2.demand_miss_rate::cpu.data         0.561008                       # miss rate for demand accesses
system.l2.demand_miss_rate::total            0.561093                       # miss rate for demand accesses
system.l2.overall_miss_rate::cpu.inst        0.981726                       # miss rate for overall accesses
system.l2.overall_miss_rate::cpu.data        0.561008                       # miss rate for overall accesses
system.l2.overall_miss_rate::total           0.561093                       # miss rate for overall accesses
system.l2.ReadExReq_avg_miss_latency::cpu.data 79595.140736                       # average ReadExReq miss latency
system.l2.ReadExReq_avg_miss_latency::total 79595.140736                       # average ReadExReq miss latency
system.l2.ReadCleanReq_avg_miss_latency::cpu.inst 76490.175801                       # average ReadCleanReq miss latency
system.l2.ReadCleanReq_avg_miss_latency::total 76490.175801                       # average ReadCleanReq miss latency
system.l2.ReadSharedReq_avg_miss_latency::cpu.data 76243.038328                       # average ReadSharedReq miss latency
system.l2.ReadSharedReq_avg_miss_latency::total 76243.038328                       # average ReadSharedReq miss latency
system.l2.demand_avg_miss_latency::cpu.inst 76490.175801                       # average overall miss latency
system.l2.demand_avg_miss_latency::cpu.data 77875.993264                       # average overall miss latency
system.l2.demand_avg_miss_latency::total 77875.506581                       # average overall miss latency
system.l2.overall_avg_miss_latency::cpu.inst 76490.175801                       # average overall miss latency
system.l2.overall_avg_miss_latency::cpu.data 77875.993264                       # average overall miss latency
system.l2.overall_avg_miss_latency::total 77875.506581                       # average overall miss latency
system.l2.blocked_cycles::no_mshrs                  0                       # number of cycles access was blocked
system.l2.blocked_cycles::no_targets                0                       # number of cycles access was blocked
system.l2.blocked::no_mshrs                         0                       # number of cycles access was blocked
system.l2.blocked::no_targets                       0                       # number of cycles access was blocked
system.l2.avg_blocked_cycles::no_mshrs            nan                       # average number of cycles each access was blocked
system.l2.avg_blocked_cycles::no_targets          nan                       # average number of cycles each access was blocked
system.l2.fast_writes                               0                       # number of fast writes performed
system.l2.cache_copies                              0                       # number of cache copies performed
system.l2.writebacks::writebacks              1449899                       # number of writebacks
system.l2.writebacks::total                   1449899                       # number of writebacks
system.l2.CleanEvict_mshr_misses::writebacks        89867                       # number of CleanEvict MSHR misses
system.l2.CleanEvict_mshr_misses::total         89867                       # number of CleanEvict MSHR misses
system.l2.ReadExReq_mshr_misses::cpu.data      1340882                       # number of ReadExReq MSHR misses
system.l2.ReadExReq_mshr_misses::total        1340882                       # number of ReadExReq MSHR misses
system.l2.ReadCleanReq_mshr_misses::cpu.inst          967                       # number of ReadCleanReq MSHR misses
system.l2.ReadCleanReq_mshr_misses::total          967                       # number of ReadCleanReq MSHR misses
system.l2.ReadSharedReq_mshr_misses::cpu.data      1411658                       # number of ReadSharedReq MSHR misses
system.l2.ReadSharedReq_mshr_misses::total      1411658                       # number of ReadSharedReq MSHR misses
system.l2.demand_mshr_misses::cpu.inst            967                       # number of demand (read+write) MSHR misses
system.l2.demand_mshr_misses::cpu.data        2752540                       # number of demand (read+write) MSHR misses
system.l2.demand_mshr_misses::total           2753507                       # number of demand (read+write) MSHR misses
system.l2.overall_mshr_misses::cpu.inst           967                       # number of overall MSHR misses
system.l2.overall_mshr_misses::cpu.data       2752540                       # number of overall MSHR misses
system.l2.overall_mshr_misses::total          2753507                       # number of overall MSHR misses
system.l2.ReadExReq_mshr_miss_latency::cpu.data  93318871500                       # number of ReadExReq MSHR miss cycles
system.l2.ReadExReq_mshr_miss_latency::total  93318871500                       # number of ReadExReq MSHR miss cycles
system.l2.ReadCleanReq_mshr_miss_latency::cpu.inst     64296000                       # number of ReadCleanReq MSHR miss cycles
system.l2.ReadCleanReq_mshr_miss_latency::total     64296000                       # number of ReadCleanReq MSHR miss cycles
system.l2.ReadSharedReq_mshr_miss_latency::cpu.data  93512515000                       # number of ReadSharedReq MSHR miss cycles
system.l2.ReadSharedReq_mshr_miss_latency::total  93512515000                       # number of ReadSharedReq MSHR miss cycles
system.l2.demand_mshr_miss_latency::cpu.inst     64296000                       # number of demand (read+write) MSHR miss cycles
system.l2.demand_mshr_miss_latency::cpu.data 186831386500                       # number of demand (read+write) MSHR miss cycles
system.l2.demand_mshr_miss_latency::total 186895682500                       # number of demand (read+write) MSHR miss cycles
system.l2.overall_mshr_miss_latency::cpu.inst     64296000                       # number of overall MSHR miss cycles
system.l2.overall_mshr_miss_latency::cpu.data 186831386500                       # number of overall MSHR miss cycles
system.l2.overall_mshr_miss_latency::total 186895682500                       # number of overall MSHR miss cycles
system.l2.CleanEvict_mshr_miss_rate::writebacks          inf                       # mshr miss rate for CleanEvict accesses
system.l2.CleanEvict_mshr_miss_rate::total          inf                       # mshr miss rate for CleanEvict accesses
system.l2.ReadExReq_mshr_miss_rate::cpu.data     0.767793                       # mshr miss rate for ReadExReq accesses
system.l2.ReadExReq_mshr_miss_rate::total     0.767793                       # mshr miss rate for ReadExReq accesses
system.l2.ReadCleanReq_mshr_miss_rate::cpu.inst     0.981726                       # mshr miss rate for ReadCleanReq accesses
system.l2.ReadCleanReq_mshr_miss_rate::total     0.981726                       # mshr miss rate for ReadCleanReq accesses
system.l2.ReadSharedReq_mshr_miss_rate::cpu.data     0.446727                       # mshr miss rate for ReadSharedReq accesses
system.l2.ReadSharedReq_mshr_miss_rate::total     0.446727                       # mshr miss rate for ReadSharedReq accesses
system.l2.demand_mshr_miss_rate::cpu.inst     0.981726                       # mshr miss rate for demand accesses
system.l2.demand_mshr_miss_rate::cpu.data     0.561008                       # mshr miss rate for demand accesses
system.l2.demand_mshr_miss_rate::total       0.561093                       # mshr miss rate for demand accesses
system.l2.overall_mshr_miss_rate::cpu.inst     0.981726                       # mshr miss rate for overall accesses
system.l2.overall_mshr_miss_rate::cpu.data     0.561008                       # mshr miss rate for overall accesses
system.l2.overall_mshr_miss_rate::total      0.561093                       # mshr miss rate for overall accesses
system.l2.ReadExReq_avg_mshr_miss_latency::cpu.data 69595.140736                       # average ReadExReq mshr miss latency
system.l2.ReadExReq_avg_mshr_miss_latency::total 69595.140736                       # average ReadExReq mshr miss latency
system.l2.ReadCleanReq_avg_mshr_miss_latency::cpu.inst 66490.175801                       # average ReadCleanReq mshr miss latency
system.l2.ReadCleanReq_avg_mshr_miss_latency::total 66490.175801                       # average ReadCleanReq mshr miss latency
system.l2.ReadSharedReq_avg_mshr_miss_latency::cpu.data 66243.038328                       # average ReadSharedReq mshr miss latency
system.l2.ReadSharedReq_avg_mshr_miss_latency::total 66243.038328                       # average ReadSharedReq mshr miss latency
system.l2.demand_avg_mshr_miss_latency::cpu.inst 66490.175801                       # average overall mshr miss latency
system.l2.demand_avg_mshr_miss_latency::cpu.data 67875.993264                       # average overall mshr miss latency
system.l2.demand_avg_mshr_miss_latency::total 67875.506581                       # average overall mshr miss latency
system.l2.overall_avg_mshr_miss_latency::cpu.inst 66490.175801                       # average overall mshr miss latency
system.l2.overall_avg_mshr_miss_latency::cpu.data 67875.993264                       # average overall mshr miss latency
system.l2.overall_avg_mshr_miss_latency::total 67875.506581                       # average overall mshr miss latency
system.l2.no_allocate_misses                        0                       # Number of misses that were no-allocate
system.membus.trans_dist::ReadResp            1412625                       # Transaction distribution
system.membus.trans_dist::WritebackDirty      1449899                       # Transaction distribution
system.membus.trans_dist::CleanEvict          1286367                       # Transaction distribution
system.membus.trans_dist::ReadExReq           1340882                       # Transaction distribution
system.membus.trans_dist::ReadExResp          1340882                       # Transaction distribution
system.membus.trans_dist::ReadSharedReq       1412625                       # Transaction distribution
system.membus.pkt_count_system.l2.mem_side::system.mem_ctrls.port      8243280                       # Packet count per connected master and slave (bytes)
system.membus.pkt_count_system.l2.mem_side::total      8243280                       # Packet count per connected master and slave (bytes)
system.membus.pkt_count::total                8243280                       # Packet count per connected master and slave (bytes)
system.membus.pkt_size_system.l2.mem_side::system.mem_ctrls.port    269017984                       # Cumulative packet size per connected master and slave (bytes)
system.membus.pkt_size_system.l2.mem_side::total    269017984                       # Cumulative packet size per connected master and slave (bytes)
system.membus.pkt_size::total               269017984                       # Cumulative packet size per connected master and slave (bytes)
system.membus.snoops                                0                       # Total snoops (count)
system.membus.snoop_fanout::samples           5489773                       # Request fanout histogram
system.membus.snoop_fanout::mean                    0                       # Request fanout histogram
system.membus.snoop_fanout::stdev                   0                       # Request fanout histogram
system.membus.snoop_fanout::underflows              0      0.00%      0.00% # Request fanout histogram
system.membus.snoop_fanout::0                 5489773    100.00%    100.00% # Request fanout histogram
system.membus.snoop_fanout::1                       0      0.00%    100.00% # Request fanout histogram
system.membus.snoop_fanout::overflows               0      0.00%    100.00% # Request fanout histogram
system.membus.snoop_fanout::min_value               0                       # Request fanout histogram
system.membus.snoop_fanout::max_value               0                       # Request fanout histogram
system.membus.snoop_fanout::total             5489773                       # Request fanout histogram
system.membus.reqLayer2.occupancy         11320410500                       # Layer occupancy (ticks)
system.membus.reqLayer2.utilization               0.9                       # Layer utilization (%)
system.membus.respLayer1.occupancy        14614418250                       # Layer occupancy (ticks)
system.membus.respLayer1.utilization              1.2                       # Layer utilization (%)
system.tol2bus.snoop_filter.tot_requests      9812910                       # Total number of requests made to the snoop filter.
system.tol2bus.snoop_filter.hit_single_requests      4905510                       # Number of requests hitting in the snoop filter with a single holder of the requested data.
system.tol2bus.snoop_filter.hit_multi_requests            1                       # Number of requests hitting in the snoop filter with multiple (>1) holders of the requested data.
system.tol2bus.snoop_filter.tot_snoops         108827                       # Total number of snoops made to the snoop filter.
system.tol2bus.snoop_filter.hit_single_snoops       108827                       # Number of snoops hitting in the snoop filter with a single holder of the requested data.
system.tol2bus.snoop_filter.hit_multi_snoops            0                       # Number of snoops hitting in the snoop filter with multiple (>1) holders of the requested data.
system.tol2bus.trans_dist::ReadResp           3160990                       # Transaction distribution
system.tol2bus.trans_dist::WritebackDirty      3950434                       # Transaction distribution
system.tol2bus.trans_dist::WritebackClean          119                       # Transaction distribution
system.tol2bus.trans_dist::CleanEvict         3710182                       # Transaction distribution
system.tol2bus.trans_dist::ReadExReq          1746410                       # Transaction distribution
system.tol2bus.trans_dist::ReadExResp         1746410                       # Transaction distribution
system.tol2bus.trans_dist::ReadCleanReq           985                       # Transaction distribution
system.tol2bus.trans_dist::ReadSharedReq      3160005                       # Transaction distribution
system.tol2bus.pkt_count_system.cpu.icache.mem_side::system.l2.cpu_side         2089                       # Packet count per connected master and slave (bytes)
system.tol2bus.pkt_count_system.cpu.dcache.mem_side::system.l2.cpu_side     14718220                       # Packet count per connected master and slave (bytes)
system.tol2bus.pkt_count::total              14720309                       # Packet count per connected master and slave (bytes)
system.tol2bus.pkt_size_system.cpu.icache.mem_side::system.l2.cpu_side        70656                       # Cumulative packet size per connected master and slave (bytes)
system.tol2bus.pkt_size_system.cpu.dcache.mem_side::system.l2.cpu_side    474044800                       # Cumulative packet size per connected master and slave (bytes)
system.tol2bus.pkt_size::total              474115456                       # Cumulative packet size per connected master and slave (bytes)
system.tol2bus.snoops                         2755226                       # Total snoops (count)
system.tol2bus.snoop_fanout::samples          7662626                       # Request fanout histogram
system.tol2bus.snoop_fanout::mean            0.014202                       # Request fanout histogram
system.tol2bus.snoop_fanout::stdev           0.118325                       # Request fanout histogram
system.tol2bus.snoop_fanout::underflows             0      0.00%      0.00% # Request fanout histogram
system.tol2bus.snoop_fanout::0                7553798     98.58%     98.58% # Request fanout histogram
system.tol2bus.snoop_fanout::1                 108828      1.42%    100.00% # Request fanout histogram
system.tol2bus.snoop_fanout::2                      0      0.00%    100.00% # Request fanout histogram
system.tol2bus.snoop_fanout::3                      0      0.00%    100.00% # Request fanout histogram
system.tol2bus.snoop_fanout::4                      0      0.00%    100.00% # Request fanout histogram
system.tol2bus.snoop_fanout::overflows              0      0.00%    100.00% # Request fanout histogram
system.tol2bus.snoop_fanout::min_value              0                       # Request fanout histogram
system.tol2bus.snoop_fanout::max_value              1                       # Request fanout histogram
system.tol2bus.snoop_fanout::total            7662626                       # Request fanout histogram
system.tol2bus.reqLayer0.occupancy         7407109000                       # Layer occupancy (ticks)
system.tol2bus.reqLayer0.utilization              0.6                       # Layer utilization (%)
system.tol2bus.respLayer0.occupancy           1477500                       # Layer occupancy (ticks)
system.tol2bus.respLayer0.utilization             0.0                       # Layer utilization (%)
system.tol2bus.respLayer1.occupancy        7359622500                       # Layer occupancy (ticks)
system.tol2bus.respLayer1.utilization             0.6                       # Layer utilization (%)

---------- End Simulation Statistics   ----------
