
---------- Begin Simulation Statistics ----------
sim_seconds                                  1.223892                       # Number of seconds simulated
sim_ticks                               1223891932500                       # Number of ticks simulated
final_tick                               1223891932500                       # Number of ticks from beginning of simulation (restored from checkpoints and never reset)
sim_freq                                 1000000000000                       # Frequency of simulated ticks
host_inst_rate                                 689595                       # Simulator instruction rate (inst/s)
host_op_rate                                  1005343                       # Simulator op (including micro ops) rate (op/s)
host_tick_rate                             1687978958                       # Simulator tick rate (ticks/s)
host_mem_usage                                 833980                       # Number of bytes of host memory used
host_seconds                                   725.06                       # Real time elapsed on the host
sim_insts                                   500000001                       # Number of instructions simulated
sim_ops                                     728937824                       # Number of ops (including micro ops) simulated
system.voltage_domain.voltage                       1                       # Voltage in Volts
system.clk_domain.clock                          1000                       # Clock period in ticks
system.mem_ctrls.bytes_read::cpu.inst           62208                       # Number of bytes read from this memory
system.mem_ctrls.bytes_read::cpu.data       175554112                       # Number of bytes read from this memory
system.mem_ctrls.bytes_read::total          175616320                       # Number of bytes read from this memory
system.mem_ctrls.bytes_inst_read::cpu.inst        62208                       # Number of instructions bytes read from this memory
system.mem_ctrls.bytes_inst_read::total         62208                       # Number of instructions bytes read from this memory
system.mem_ctrls.bytes_written::writebacks     92652224                       # Number of bytes written to this memory
system.mem_ctrls.bytes_written::total        92652224                       # Number of bytes written to this memory
system.mem_ctrls.num_reads::cpu.inst              972                       # Number of read requests responded to by this memory
system.mem_ctrls.num_reads::cpu.data          2743033                       # Number of read requests responded to by this memory
system.mem_ctrls.num_reads::total             2744005                       # Number of read requests responded to by this memory
system.mem_ctrls.num_writes::writebacks       1447691                       # Number of write requests responded to by this memory
system.mem_ctrls.num_writes::total            1447691                       # Number of write requests responded to by this memory
system.mem_ctrls.bw_read::cpu.inst              50828                       # Total read bandwidth from this memory (bytes/s)
system.mem_ctrls.bw_read::cpu.data          143439226                       # Total read bandwidth from this memory (bytes/s)
system.mem_ctrls.bw_read::total             143490054                       # Total read bandwidth from this memory (bytes/s)
system.mem_ctrls.bw_inst_read::cpu.inst         50828                       # Instruction read bandwidth from this memory (bytes/s)
system.mem_ctrls.bw_inst_read::total            50828                       # Instruction read bandwidth from this memory (bytes/s)
system.mem_ctrls.bw_write::writebacks        75702945                       # Write bandwidth from this memory (bytes/s)
system.mem_ctrls.bw_write::total             75702945                       # Write bandwidth from this memory (bytes/s)
system.mem_ctrls.bw_total::writebacks        75702945                       # Total bandwidth to/from this memory (bytes/s)
system.mem_ctrls.bw_total::cpu.inst             50828                       # Total bandwidth to/from this memory (bytes/s)
system.mem_ctrls.bw_total::cpu.data         143439226                       # Total bandwidth to/from this memory (bytes/s)
system.mem_ctrls.bw_total::total            219193000                       # Total bandwidth to/from this memory (bytes/s)
system.mem_ctrls.readReqs                     2744005                       # Number of read requests accepted
system.mem_ctrls.writeReqs                    1447691                       # Number of write requests accepted
system.mem_ctrls.readBursts                   2744005                       # Number of DRAM read bursts, including those serviced by the write queue
system.mem_ctrls.writeBursts                  1447691                       # Number of DRAM write bursts, including those merged in the write queue
system.mem_ctrls.bytesReadDRAM              175492288                       # Total number of bytes read from DRAM
system.mem_ctrls.bytesReadWrQ                  124032                       # Total number of bytes read from write queue
system.mem_ctrls.bytesWritten                92647744                       # Total number of bytes written to DRAM
system.mem_ctrls.bytesReadSys               175616320                       # Total read bytes from the system interface side
system.mem_ctrls.bytesWrittenSys             92652224                       # Total written bytes from the system interface side
system.mem_ctrls.servicedByWrQ                   1938                       # Number of DRAM read bursts serviced by the write queue
system.mem_ctrls.mergedWrBursts                    46                       # Number of DRAM write bursts merged with an existing one
system.mem_ctrls.neitherReadNorWriteReqs      1279212                       # Number of requests that are neither read nor write
system.mem_ctrls.perBankRdBursts::0            173319                       # Per bank write bursts
system.mem_ctrls.perBankRdBursts::1            171878                       # Per bank write bursts
system.mem_ctrls.perBankRdBursts::2            172416                       # Per bank write bursts
system.mem_ctrls.perBankRdBursts::3            169318                       # Per bank write bursts
system.mem_ctrls.perBankRdBursts::4            169209                       # Per bank write bursts
system.mem_ctrls.perBankRdBursts::5            168782                       # Per bank write bursts
system.mem_ctrls.perBankRdBursts::6            170737                       # Per bank write bursts
system.mem_ctrls.perBankRdBursts::7            169826                       # Per bank write bursts
system.mem_ctrls.perBankRdBursts::8            167714                       # Per bank write bursts
system.mem_ctrls.perBankRdBursts::9            168021                       # Per bank write bursts
system.mem_ctrls.perBankRdBursts::10           171468                       # Per bank write bursts
system.mem_ctrls.perBankRdBursts::11           171817                       # Per bank write bursts
system.mem_ctrls.perBankRdBursts::12           174397                       # Per bank write bursts
system.mem_ctrls.perBankRdBursts::13           173835                       # Per bank write bursts
system.mem_ctrls.perBankRdBursts::14           174020                       # Per bank write bursts
system.mem_ctrls.perBankRdBursts::15           175310                       # Per bank write bursts
system.mem_ctrls.perBankWrBursts::0             91404                       # Per bank write bursts
system.mem_ctrls.perBankWrBursts::1             90860                       # Per bank write bursts
system.mem_ctrls.perBankWrBursts::2             92168                       # Per bank write bursts
system.mem_ctrls.perBankWrBursts::3             89871                       # Per bank write bursts
system.mem_ctrls.perBankWrBursts::4             89361                       # Per bank write bursts
system.mem_ctrls.perBankWrBursts::5             88799                       # Per bank write bursts
system.mem_ctrls.perBankWrBursts::6             90067                       # Per bank write bursts
system.mem_ctrls.perBankWrBursts::7             89969                       # Per bank write bursts
system.mem_ctrls.perBankWrBursts::8             89101                       # Per bank write bursts
system.mem_ctrls.perBankWrBursts::9             89221                       # Per bank write bursts
system.mem_ctrls.perBankWrBursts::10            90507                       # Per bank write bursts
system.mem_ctrls.perBankWrBursts::11            90231                       # Per bank write bursts
system.mem_ctrls.perBankWrBursts::12            90892                       # Per bank write bursts
system.mem_ctrls.perBankWrBursts::13            91178                       # Per bank write bursts
system.mem_ctrls.perBankWrBursts::14            91341                       # Per bank write bursts
system.mem_ctrls.perBankWrBursts::15            92651                       # Per bank write bursts
system.mem_ctrls.numRdRetry                         0                       # Number of times read queue was full causing retry
system.mem_ctrls.numWrRetry                         0                       # Number of times write queue was full causing retry
system.mem_ctrls.totGap                  1219570799500                       # Total gap between requests
system.mem_ctrls.readPktSize::0                     0                       # Read request sizes (log2)
system.mem_ctrls.readPktSize::1                     0                       # Read request sizes (log2)
system.mem_ctrls.readPktSize::2                     0                       # Read request sizes (log2)
system.mem_ctrls.readPktSize::3                     0                       # Read request sizes (log2)
system.mem_ctrls.readPktSize::4                     0                       # Read request sizes (log2)
system.mem_ctrls.readPktSize::5                     0                       # Read request sizes (log2)
system.mem_ctrls.readPktSize::6               2744005                       # Read request sizes (log2)
system.mem_ctrls.writePktSize::0                    0                       # Write request sizes (log2)
system.mem_ctrls.writePktSize::1                    0                       # Write request sizes (log2)
system.mem_ctrls.writePktSize::2                    0                       # Write request sizes (log2)
system.mem_ctrls.writePktSize::3                    0                       # Write request sizes (log2)
system.mem_ctrls.writePktSize::4                    0                       # Write request sizes (log2)
system.mem_ctrls.writePktSize::5                    0                       # Write request sizes (log2)
system.mem_ctrls.writePktSize::6              1447691                       # Write request sizes (log2)
system.mem_ctrls.rdQLenPdf::0                 2706725                       # What read queue length does an incoming req see
system.mem_ctrls.rdQLenPdf::1                   30891                       # What read queue length does an incoming req see
system.mem_ctrls.rdQLenPdf::2                    2571                       # What read queue length does an incoming req see
system.mem_ctrls.rdQLenPdf::3                    1880                       # What read queue length does an incoming req see
system.mem_ctrls.rdQLenPdf::4                       0                       # What read queue length does an incoming req see
system.mem_ctrls.rdQLenPdf::5                       0                       # What read queue length does an incoming req see
system.mem_ctrls.rdQLenPdf::6                       0                       # What read queue length does an incoming req see
system.mem_ctrls.rdQLenPdf::7                       0                       # What read queue length does an incoming req see
system.mem_ctrls.rdQLenPdf::8                       0                       # What read queue length does an incoming req see
system.mem_ctrls.rdQLenPdf::9                       0                       # What read queue length does an incoming req see
system.mem_ctrls.rdQLenPdf::10                      0                       # What read queue length does an incoming req see
system.mem_ctrls.rdQLenPdf::11                      0                       # What read queue length does an incoming req see
system.mem_ctrls.rdQLenPdf::12                      0                       # What read queue length does an incoming req see
system.mem_ctrls.rdQLenPdf::13                      0                       # What read queue length does an incoming req see
system.mem_ctrls.rdQLenPdf::14                      0                       # What read queue length does an incoming req see
system.mem_ctrls.rdQLenPdf::15                      0                       # What read queue length does an incoming req see
system.mem_ctrls.rdQLenPdf::16                      0                       # What read queue length does an incoming req see
system.mem_ctrls.rdQLenPdf::17                      0                       # What read queue length does an incoming req see
system.mem_ctrls.rdQLenPdf::18                      0                       # What read queue length does an incoming req see
system.mem_ctrls.rdQLenPdf::19                      0                       # What read queue length does an incoming req see
system.mem_ctrls.rdQLenPdf::20                      0                       # What read queue length does an incoming req see
system.mem_ctrls.rdQLenPdf::21                      0                       # What read queue length does an incoming req see
system.mem_ctrls.rdQLenPdf::22                      0                       # What read queue length does an incoming req see
system.mem_ctrls.rdQLenPdf::23                      0                       # What read queue length does an incoming req see
system.mem_ctrls.rdQLenPdf::24                      0                       # What read queue length does an incoming req see
system.mem_ctrls.rdQLenPdf::25                      0                       # What read queue length does an incoming req see
system.mem_ctrls.rdQLenPdf::26                      0                       # What read queue length does an incoming req see
system.mem_ctrls.rdQLenPdf::27                      0                       # What read queue length does an incoming req see
system.mem_ctrls.rdQLenPdf::28                      0                       # What read queue length does an incoming req see
system.mem_ctrls.rdQLenPdf::29                      0                       # What read queue length does an incoming req see
system.mem_ctrls.rdQLenPdf::30                      0                       # What read queue length does an incoming req see
system.mem_ctrls.rdQLenPdf::31                      0                       # What read queue length does an incoming req see
system.mem_ctrls.wrQLenPdf::0                       1                       # What write queue length does an incoming req see
system.mem_ctrls.wrQLenPdf::1                       1                       # What write queue length does an incoming req see
system.mem_ctrls.wrQLenPdf::2                       1                       # What write queue length does an incoming req see
system.mem_ctrls.wrQLenPdf::3                       1                       # What write queue length does an incoming req see
system.mem_ctrls.wrQLenPdf::4                       1                       # What write queue length does an incoming req see
system.mem_ctrls.wrQLenPdf::5                       1                       # What write queue length does an incoming req see
system.mem_ctrls.wrQLenPdf::6                       1                       # What write queue length does an incoming req see
system.mem_ctrls.wrQLenPdf::7                       1                       # What write queue length does an incoming req see
system.mem_ctrls.wrQLenPdf::8                       1                       # What write queue length does an incoming req see
system.mem_ctrls.wrQLenPdf::9                       1                       # What write queue length does an incoming req see
system.mem_ctrls.wrQLenPdf::10                      1                       # What write queue length does an incoming req see
system.mem_ctrls.wrQLenPdf::11                      1                       # What write queue length does an incoming req see
system.mem_ctrls.wrQLenPdf::12                      1                       # What write queue length does an incoming req see
system.mem_ctrls.wrQLenPdf::13                      1                       # What write queue length does an incoming req see
system.mem_ctrls.wrQLenPdf::14                      1                       # What write queue length does an incoming req see
system.mem_ctrls.wrQLenPdf::15                  15183                       # What write queue length does an incoming req see
system.mem_ctrls.wrQLenPdf::16                  16027                       # What write queue length does an incoming req see
system.mem_ctrls.wrQLenPdf::17                  87575                       # What write queue length does an incoming req see
system.mem_ctrls.wrQLenPdf::18                  88077                       # What write queue length does an incoming req see
system.mem_ctrls.wrQLenPdf::19                  88395                       # What write queue length does an incoming req see
system.mem_ctrls.wrQLenPdf::20                  88532                       # What write queue length does an incoming req see
system.mem_ctrls.wrQLenPdf::21                  88657                       # What write queue length does an incoming req see
system.mem_ctrls.wrQLenPdf::22                  88798                       # What write queue length does an incoming req see
system.mem_ctrls.wrQLenPdf::23                  88631                       # What write queue length does an incoming req see
system.mem_ctrls.wrQLenPdf::24                  88814                       # What write queue length does an incoming req see
system.mem_ctrls.wrQLenPdf::25                  88533                       # What write queue length does an incoming req see
system.mem_ctrls.wrQLenPdf::26                  88536                       # What write queue length does an incoming req see
system.mem_ctrls.wrQLenPdf::27                  88574                       # What write queue length does an incoming req see
system.mem_ctrls.wrQLenPdf::28                  88585                       # What write queue length does an incoming req see
system.mem_ctrls.wrQLenPdf::29                  88914                       # What write queue length does an incoming req see
system.mem_ctrls.wrQLenPdf::30                  88518                       # What write queue length does an incoming req see
system.mem_ctrls.wrQLenPdf::31                  88761                       # What write queue length does an incoming req see
system.mem_ctrls.wrQLenPdf::32                  88510                       # What write queue length does an incoming req see
system.mem_ctrls.wrQLenPdf::33                     10                       # What write queue length does an incoming req see
system.mem_ctrls.wrQLenPdf::34                      0                       # What write queue length does an incoming req see
system.mem_ctrls.wrQLenPdf::35                      0                       # What write queue length does an incoming req see
system.mem_ctrls.wrQLenPdf::36                      0                       # What write queue length does an incoming req see
system.mem_ctrls.wrQLenPdf::37                      0                       # What write queue length does an incoming req see
system.mem_ctrls.wrQLenPdf::38                      0                       # What write queue length does an incoming req see
system.mem_ctrls.wrQLenPdf::39                      0                       # What write queue length does an incoming req see
system.mem_ctrls.wrQLenPdf::40                      0                       # What write queue length does an incoming req see
system.mem_ctrls.wrQLenPdf::41                      0                       # What write queue length does an incoming req see
system.mem_ctrls.wrQLenPdf::42                      0                       # What write queue length does an incoming req see
system.mem_ctrls.wrQLenPdf::43                      0                       # What write queue length does an incoming req see
system.mem_ctrls.wrQLenPdf::44                      0                       # What write queue length does an incoming req see
system.mem_ctrls.wrQLenPdf::45                      0                       # What write queue length does an incoming req see
system.mem_ctrls.wrQLenPdf::46                      0                       # What write queue length does an incoming req see
system.mem_ctrls.wrQLenPdf::47                      0                       # What write queue length does an incoming req see
system.mem_ctrls.wrQLenPdf::48                      0                       # What write queue length does an incoming req see
system.mem_ctrls.wrQLenPdf::49                      0                       # What write queue length does an incoming req see
system.mem_ctrls.wrQLenPdf::50                      0                       # What write queue length does an incoming req see
system.mem_ctrls.wrQLenPdf::51                      0                       # What write queue length does an incoming req see
system.mem_ctrls.wrQLenPdf::52                      0                       # What write queue length does an incoming req see
system.mem_ctrls.wrQLenPdf::53                      0                       # What write queue length does an incoming req see
system.mem_ctrls.wrQLenPdf::54                      0                       # What write queue length does an incoming req see
system.mem_ctrls.wrQLenPdf::55                      0                       # What write queue length does an incoming req see
system.mem_ctrls.wrQLenPdf::56                      0                       # What write queue length does an incoming req see
system.mem_ctrls.wrQLenPdf::57                      0                       # What write queue length does an incoming req see
system.mem_ctrls.wrQLenPdf::58                      0                       # What write queue length does an incoming req see
system.mem_ctrls.wrQLenPdf::59                      0                       # What write queue length does an incoming req see
system.mem_ctrls.wrQLenPdf::60                      0                       # What write queue length does an incoming req see
system.mem_ctrls.wrQLenPdf::61                      0                       # What write queue length does an incoming req see
system.mem_ctrls.wrQLenPdf::62                      0                       # What write queue length does an incoming req see
system.mem_ctrls.wrQLenPdf::63                      0                       # What write queue length does an incoming req see
system.mem_ctrls.bytesPerActivate::samples       851236                       # Bytes accessed per row activation
system.mem_ctrls.bytesPerActivate::mean    315.000813                       # Bytes accessed per row activation
system.mem_ctrls.bytesPerActivate::gmean   168.932593                       # Bytes accessed per row activation
system.mem_ctrls.bytesPerActivate::stdev   353.134471                       # Bytes accessed per row activation
system.mem_ctrls.bytesPerActivate::0-127       409054     48.05%     48.05% # Bytes accessed per row activation
system.mem_ctrls.bytesPerActivate::128-255       132288     15.54%     63.59% # Bytes accessed per row activation
system.mem_ctrls.bytesPerActivate::256-383        38530      4.53%     68.12% # Bytes accessed per row activation
system.mem_ctrls.bytesPerActivate::384-511        32791      3.85%     71.97% # Bytes accessed per row activation
system.mem_ctrls.bytesPerActivate::512-639        79204      9.30%     81.28% # Bytes accessed per row activation
system.mem_ctrls.bytesPerActivate::640-767        10319      1.21%     82.49% # Bytes accessed per row activation
system.mem_ctrls.bytesPerActivate::768-895         8434      0.99%     83.48% # Bytes accessed per row activation
system.mem_ctrls.bytesPerActivate::896-1023        10390      1.22%     84.70% # Bytes accessed per row activation
system.mem_ctrls.bytesPerActivate::1024-1151       130226     15.30%    100.00% # Bytes accessed per row activation
system.mem_ctrls.bytesPerActivate::total       851236                       # Bytes accessed per row activation
system.mem_ctrls.rdPerTurnAround::samples        88507                       # Reads before turning the bus around for writes
system.mem_ctrls.rdPerTurnAround::mean      30.980894                       # Reads before turning the bus around for writes
system.mem_ctrls.rdPerTurnAround::gmean     27.717158                       # Reads before turning the bus around for writes
system.mem_ctrls.rdPerTurnAround::stdev     91.358520                       # Reads before turning the bus around for writes
system.mem_ctrls.rdPerTurnAround::0-1023        88494     99.99%     99.99% # Reads before turning the bus around for writes
system.mem_ctrls.rdPerTurnAround::1024-2047            7      0.01%     99.99% # Reads before turning the bus around for writes
system.mem_ctrls.rdPerTurnAround::5120-6143            1      0.00%     99.99% # Reads before turning the bus around for writes
system.mem_ctrls.rdPerTurnAround::7168-8191            1      0.00%    100.00% # Reads before turning the bus around for writes
system.mem_ctrls.rdPerTurnAround::8192-9215            1      0.00%    100.00% # Reads before turning the bus around for writes
system.mem_ctrls.rdPerTurnAround::10240-11263            1      0.00%    100.00% # Reads before turning the bus around for writes
system.mem_ctrls.rdPerTurnAround::11264-12287            1      0.00%    100.00% # Reads before turning the bus around for writes
system.mem_ctrls.rdPerTurnAround::16384-17407            1      0.00%    100.00% # Reads before turning the bus around for writes
system.mem_ctrls.rdPerTurnAround::total         88507                       # Reads before turning the bus around for writes
system.mem_ctrls.wrPerTurnAround::samples        88507                       # Writes before turning the bus around for reads
system.mem_ctrls.wrPerTurnAround::mean      16.356006                       # Writes before turning the bus around for reads
system.mem_ctrls.wrPerTurnAround::gmean     16.338995                       # Writes before turning the bus around for reads
system.mem_ctrls.wrPerTurnAround::stdev      0.765544                       # Writes before turning the bus around for reads
system.mem_ctrls.wrPerTurnAround::16            72473     81.88%     81.88% # Writes before turning the bus around for reads
system.mem_ctrls.wrPerTurnAround::17              838      0.95%     82.83% # Writes before turning the bus around for reads
system.mem_ctrls.wrPerTurnAround::18            14938     16.88%     99.71% # Writes before turning the bus around for reads
system.mem_ctrls.wrPerTurnAround::19              246      0.28%     99.99% # Writes before turning the bus around for reads
system.mem_ctrls.wrPerTurnAround::20                7      0.01%     99.99% # Writes before turning the bus around for reads
system.mem_ctrls.wrPerTurnAround::21                2      0.00%    100.00% # Writes before turning the bus around for reads
system.mem_ctrls.wrPerTurnAround::22                2      0.00%    100.00% # Writes before turning the bus around for reads
system.mem_ctrls.wrPerTurnAround::23                1      0.00%    100.00% # Writes before turning the bus around for reads
system.mem_ctrls.wrPerTurnAround::total         88507                       # Writes before turning the bus around for reads
system.mem_ctrls.totQLat                  25595166500                       # Total ticks spent queuing
system.mem_ctrls.totMemAccLat             77008922750                       # Total ticks spent from burst creation until serviced by the DRAM
system.mem_ctrls.totBusLat                13710335000                       # Total ticks spent in databus transfers
system.mem_ctrls.avgQLat                      9334.26                       # Average queueing delay per DRAM burst
system.mem_ctrls.avgBusLat                    5000.00                       # Average bus latency per DRAM burst
system.mem_ctrls.avgMemAccLat                28084.26                       # Average memory access latency per DRAM burst
system.mem_ctrls.avgRdBW                       143.39                       # Average DRAM read bandwidth in MiByte/s
system.mem_ctrls.avgWrBW                        75.70                       # Average achieved write bandwidth in MiByte/s
system.mem_ctrls.avgRdBWSys                    143.49                       # Average system read bandwidth in MiByte/s
system.mem_ctrls.avgWrBWSys                     75.70                       # Average system write bandwidth in MiByte/s
system.mem_ctrls.peakBW                      12800.00                       # Theoretical peak bandwidth in MiByte/s
system.mem_ctrls.busUtil                         1.71                       # Data bus utilization in percentage
system.mem_ctrls.busUtilRead                     1.12                       # Data bus utilization in percentage for reads
system.mem_ctrls.busUtilWrite                    0.59                       # Data bus utilization in percentage for writes
system.mem_ctrls.avgRdQLen                       1.00                       # Average read queue length when enqueuing
system.mem_ctrls.avgWrQLen                      25.46                       # Average write queue length when enqueuing
system.mem_ctrls.readRowHits                  2163924                       # Number of row buffer hits during reads
system.mem_ctrls.writeRowHits                 1174528                       # Number of row buffer hits during writes
system.mem_ctrls.readRowHitRate                 78.92                       # Row buffer hit rate for reads
system.mem_ctrls.writeRowHitRate                81.13                       # Row buffer hit rate for writes
system.mem_ctrls.avgGap                     290949.25                       # Average gap between requests
system.mem_ctrls.pageHitRate                    79.68                       # Row buffer hit rate, read and write combined
system.mem_ctrls_0.actEnergy               3181293360                       # Energy for activate commands per rank (pJ)
system.mem_ctrls_0.preEnergy               1735824750                       # Energy for precharge commands per rank (pJ)
system.mem_ctrls_0.readEnergy             10650783000                       # Energy for read commands per rank (pJ)
system.mem_ctrls_0.writeEnergy             4681793520                       # Energy for write commands per rank (pJ)
system.mem_ctrls_0.refreshEnergy          79938512160                       # Energy for refresh commands per rank (pJ)
system.mem_ctrls_0.actBackEnergy         330127037370                       # Energy for active background per rank (pJ)
system.mem_ctrls_0.preBackEnergy         444748722750                       # Energy for precharge background per rank (pJ)
system.mem_ctrls_0.totalEnergy           875063966910                       # Total energy per rank (pJ)
system.mem_ctrls_0.averagePower            714.985949                       # Core power per rank (mW)
system.mem_ctrls_0.memoryStateTime::IDLE 737501855750                       # Time in different power states
system.mem_ctrls_0.memoryStateTime::REF   40868360000                       # Time in different power states
system.mem_ctrls_0.memoryStateTime::PRE_PDN            0                       # Time in different power states
system.mem_ctrls_0.memoryStateTime::ACT  445519536750                       # Time in different power states
system.mem_ctrls_0.memoryStateTime::ACT_PDN            0                       # Time in different power states
system.mem_ctrls_1.actEnergy               3254050800                       # Energy for activate commands per rank (pJ)
system.mem_ctrls_1.preEnergy               1775523750                       # Energy for precharge commands per rank (pJ)
system.mem_ctrls_1.readEnergy             10737339600                       # Energy for read commands per rank (pJ)
system.mem_ctrls_1.writeEnergy             4698790560                       # Energy for write commands per rank (pJ)
system.mem_ctrls_1.refreshEnergy          79938512160                       # Energy for refresh commands per rank (pJ)
system.mem_ctrls_1.actBackEnergy         333164978910                       # Energy for active background per rank (pJ)
system.mem_ctrls_1.preBackEnergy         442083861750                       # Energy for precharge background per rank (pJ)
system.mem_ctrls_1.totalEnergy           875653057530                       # Total energy per rank (pJ)
system.mem_ctrls_1.averagePower            715.467276                       # Core power per rank (mW)
system.mem_ctrls_1.memoryStateTime::IDLE 733035526750                       # Time in different power states
system.mem_ctrls_1.memoryStateTime::REF   40868360000                       # Time in different power states
system.mem_ctrls_1.memoryStateTime::PRE_PDN            0                       # Time in different power states
system.mem_ctrls_1.memoryStateTime::ACT  449985865750                       # Time in different power states
system.mem_ctrls_1.memoryStateTime::ACT_PDN            0                       # Time in different power states
system.cpu_voltage_domain.voltage                   1                       # Voltage in Volts
system.cpu_clk_domain.clock                       500                       # Clock period in ticks
system.cpu.apic_clk_domain.clock                 8000                       # Clock period in ticks
system.cpu.workload.num_syscalls                   89                       # Number of system calls
system.cpu.numCycles                       2447783865                       # number of cpu cycles simulated
system.cpu.numWorkItemsStarted                      0                       # number of work items this cpu started
system.cpu.numWorkItemsCompleted                    0                       # number of work items this cpu completed
system.cpu.committedInsts                   500000001                       # Number of instructions committed
system.cpu.committedOps                     728937824                       # Number of ops (including micro ops) committed
system.cpu.num_int_alu_accesses             727310589                       # Number of integer alu accesses
system.cpu.num_fp_alu_accesses                    843                       # Number of float alu accesses
system.cpu.num_func_calls                     1427761                       # number of times a function call or return occured
system.cpu.num_conditional_control_insts     32105501                       # number of instructions that are conditional controls
system.cpu.num_int_insts                    727310589                       # number of integer instructions
system.cpu.num_fp_insts                           843                       # number of float instructions
system.cpu.num_int_register_reads          1714991297                       # number of times the integer registers were read
system.cpu.num_int_register_writes          612733141                       # number of times the integer registers were written
system.cpu.num_fp_register_reads                 1319                       # number of times the floating registers were read
system.cpu.num_fp_register_writes                 577                       # number of times the floating registers were written
system.cpu.num_cc_register_reads            181720629                       # number of times the CC registers were read
system.cpu.num_cc_register_writes           264518979                       # number of times the CC registers were written
system.cpu.num_mem_refs                     304821783                       # number of memory refs
system.cpu.num_load_insts                   228115222                       # Number of load instructions
system.cpu.num_store_insts                   76706561                       # Number of store instructions
system.cpu.num_idle_cycles                          0                       # Number of idle cycles
system.cpu.num_busy_cycles                 2447783865                       # Number of busy cycles
system.cpu.not_idle_fraction                        1                       # Percentage of non-idle cycles
system.cpu.idle_fraction                            0                       # Percentage of idle cycles
system.cpu.Branches                          38073397                       # Number of branches fetched
system.cpu.op_class::No_OpClass                960306      0.13%      0.13% # Class of executed instruction
system.cpu.op_class::IntAlu                 423024114     58.03%     58.16% # Class of executed instruction
system.cpu.op_class::IntMult                   130951      0.02%     58.18% # Class of executed instruction
system.cpu.op_class::IntDiv                       140      0.00%     58.18% # Class of executed instruction
system.cpu.op_class::FloatAdd                     530      0.00%     58.18% # Class of executed instruction
system.cpu.op_class::FloatCmp                       0      0.00%     58.18% # Class of executed instruction
system.cpu.op_class::FloatCvt                       0      0.00%     58.18% # Class of executed instruction
system.cpu.op_class::FloatMult                      0      0.00%     58.18% # Class of executed instruction
system.cpu.op_class::FloatDiv                       0      0.00%     58.18% # Class of executed instruction
system.cpu.op_class::FloatSqrt                      0      0.00%     58.18% # Class of executed instruction
system.cpu.op_class::SimdAdd                        0      0.00%     58.18% # Class of executed instruction
system.cpu.op_class::SimdAddAcc                     0      0.00%     58.18% # Class of executed instruction
system.cpu.op_class::SimdAlu                        0      0.00%     58.18% # Class of executed instruction
system.cpu.op_class::SimdCmp                        0      0.00%     58.18% # Class of executed instruction
system.cpu.op_class::SimdCvt                        0      0.00%     58.18% # Class of executed instruction
system.cpu.op_class::SimdMisc                       0      0.00%     58.18% # Class of executed instruction
system.cpu.op_class::SimdMult                       0      0.00%     58.18% # Class of executed instruction
system.cpu.op_class::SimdMultAcc                    0      0.00%     58.18% # Class of executed instruction
system.cpu.op_class::SimdShift                      0      0.00%     58.18% # Class of executed instruction
system.cpu.op_class::SimdShiftAcc                   0      0.00%     58.18% # Class of executed instruction
system.cpu.op_class::SimdSqrt                       0      0.00%     58.18% # Class of executed instruction
system.cpu.op_class::SimdFloatAdd                   0      0.00%     58.18% # Class of executed instruction
system.cpu.op_class::SimdFloatAlu                   0      0.00%     58.18% # Class of executed instruction
system.cpu.op_class::SimdFloatCmp                   0      0.00%     58.18% # Class of executed instruction
system.cpu.op_class::SimdFloatCvt                   0      0.00%     58.18% # Class of executed instruction
system.cpu.op_class::SimdFloatDiv                   0      0.00%     58.18% # Class of executed instruction
system.cpu.op_class::SimdFloatMisc                  0      0.00%     58.18% # Class of executed instruction
system.cpu.op_class::SimdFloatMult                  0      0.00%     58.18% # Class of executed instruction
system.cpu.op_class::SimdFloatMultAcc               0      0.00%     58.18% # Class of executed instruction
system.cpu.op_class::SimdFloatSqrt                  0      0.00%     58.18% # Class of executed instruction
system.cpu.op_class::MemRead                228115222     31.29%     89.48% # Class of executed instruction
system.cpu.op_class::MemWrite                76706561     10.52%    100.00% # Class of executed instruction
system.cpu.op_class::IprAccess                      0      0.00%    100.00% # Class of executed instruction
system.cpu.op_class::InstPrefetch                   0      0.00%    100.00% # Class of executed instruction
system.cpu.op_class::total                  728937824                       # Class of executed instruction
system.cpu.dcache.tags.replacements           4280382                       # number of replacements
system.cpu.dcache.tags.tagsinuse          1009.710587                       # Cycle average of tags in use
system.cpu.dcache.tags.total_refs           300540387                       # Total number of references to valid blocks.
system.cpu.dcache.tags.sampled_refs           4281406                       # Sample count of references to valid blocks.
system.cpu.dcache.tags.avg_refs             70.196657                       # Average number of references to valid blocks.
system.cpu.dcache.tags.warmup_cycle       21701578500                       # Cycle when the warmup percentage was hit.
system.cpu.dcache.tags.occ_blocks::cpu.data  1009.710587                       # Average occupied blocks per requestor
system.cpu.dcache.tags.occ_percent::cpu.data     0.986045                       # Average percentage of cache occupancy
system.cpu.dcache.tags.occ_percent::total     0.986045                       # Average percentage of cache occupancy
system.cpu.dcache.tags.occ_task_id_blocks::1024         1024                       # Occupied blocks per task id
system.cpu.dcache.tags.age_task_id_blocks_1024::0            3                       # Occupied blocks per task id
system.cpu.dcache.tags.age_task_id_blocks_1024::1           25                       # Occupied blocks per task id
system.cpu.dcache.tags.age_task_id_blocks_1024::2          252                       # Occupied blocks per task id
system.cpu.dcache.tags.age_task_id_blocks_1024::3          578                       # Occupied blocks per task id
system.cpu.dcache.tags.age_task_id_blocks_1024::4          166                       # Occupied blocks per task id
system.cpu.dcache.tags.occ_task_id_percent::1024            1                       # Percentage of cache occupancy per task id
system.cpu.dcache.tags.tag_accesses        2442855750                       # Number of tag accesses
system.cpu.dcache.tags.data_accesses       2442855750                       # Number of data accesses
system.cpu.dcache.ReadReq_hits::cpu.data    225488943                       # number of ReadReq hits
system.cpu.dcache.ReadReq_hits::total       225488943                       # number of ReadReq hits
system.cpu.dcache.WriteReq_hits::cpu.data     75051444                       # number of WriteReq hits
system.cpu.dcache.WriteReq_hits::total       75051444                       # number of WriteReq hits
system.cpu.dcache.demand_hits::cpu.data     300540387                       # number of demand (read+write) hits
system.cpu.dcache.demand_hits::total        300540387                       # number of demand (read+write) hits
system.cpu.dcache.overall_hits::cpu.data    300540387                       # number of overall hits
system.cpu.dcache.overall_hits::total       300540387                       # number of overall hits
system.cpu.dcache.ReadReq_misses::cpu.data      2560753                       # number of ReadReq misses
system.cpu.dcache.ReadReq_misses::total       2560753                       # number of ReadReq misses
system.cpu.dcache.WriteReq_misses::cpu.data      1655117                       # number of WriteReq misses
system.cpu.dcache.WriteReq_misses::total      1655117                       # number of WriteReq misses
system.cpu.dcache.SoftPFReq_misses::cpu.data        65536                       # number of SoftPFReq misses
system.cpu.dcache.SoftPFReq_misses::total        65536                       # number of SoftPFReq misses
system.cpu.dcache.demand_misses::cpu.data      4215870                       # number of demand (read+write) misses
system.cpu.dcache.demand_misses::total        4215870                       # number of demand (read+write) misses
system.cpu.dcache.overall_misses::cpu.data      4281406                       # number of overall misses
system.cpu.dcache.overall_misses::total       4281406                       # number of overall misses
system.cpu.dcache.ReadReq_miss_latency::cpu.data 120826164000                       # number of ReadReq miss cycles
system.cpu.dcache.ReadReq_miss_latency::total 120826164000                       # number of ReadReq miss cycles
system.cpu.dcache.WriteReq_miss_latency::cpu.data 113996223000                       # number of WriteReq miss cycles
system.cpu.dcache.WriteReq_miss_latency::total 113996223000                       # number of WriteReq miss cycles
system.cpu.dcache.demand_miss_latency::cpu.data 234822387000                       # number of demand (read+write) miss cycles
system.cpu.dcache.demand_miss_latency::total 234822387000                       # number of demand (read+write) miss cycles
system.cpu.dcache.overall_miss_latency::cpu.data 234822387000                       # number of overall miss cycles
system.cpu.dcache.overall_miss_latency::total 234822387000                       # number of overall miss cycles
system.cpu.dcache.ReadReq_accesses::cpu.data    228049696                       # number of ReadReq accesses(hits+misses)
system.cpu.dcache.ReadReq_accesses::total    228049696                       # number of ReadReq accesses(hits+misses)
system.cpu.dcache.WriteReq_accesses::cpu.data     76706561                       # number of WriteReq accesses(hits+misses)
system.cpu.dcache.WriteReq_accesses::total     76706561                       # number of WriteReq accesses(hits+misses)
system.cpu.dcache.SoftPFReq_accesses::cpu.data        65536                       # number of SoftPFReq accesses(hits+misses)
system.cpu.dcache.SoftPFReq_accesses::total        65536                       # number of SoftPFReq accesses(hits+misses)
system.cpu.dcache.demand_accesses::cpu.data    304756257                       # number of demand (read+write) accesses
system.cpu.dcache.demand_accesses::total    304756257                       # number of demand (read+write) accesses
system.cpu.dcache.overall_accesses::cpu.data    304821793                       # number of overall (read+write) accesses
system.cpu.dcache.overall_accesses::total    304821793                       # number of overall (read+write) accesses
system.cpu.dcache.ReadReq_miss_rate::cpu.data     0.011229                       # miss rate for ReadReq accesses
system.cpu.dcache.ReadReq_miss_rate::total     0.011229                       # miss rate for ReadReq accesses
system.cpu.dcache.WriteReq_miss_rate::cpu.data     0.021577                       # miss rate for WriteReq accesses
system.cpu.dcache.WriteReq_miss_rate::total     0.021577                       # miss rate for WriteReq accesses
system.cpu.dcache.SoftPFReq_miss_rate::cpu.data            1                       # miss rate for SoftPFReq accesses
system.cpu.dcache.SoftPFReq_miss_rate::total            1                       # miss rate for SoftPFReq accesses
system.cpu.dcache.demand_miss_rate::cpu.data     0.013834                       # miss rate for demand accesses
system.cpu.dcache.demand_miss_rate::total     0.013834                       # miss rate for demand accesses
system.cpu.dcache.overall_miss_rate::cpu.data     0.014046                       # miss rate for overall accesses
system.cpu.dcache.overall_miss_rate::total     0.014046                       # miss rate for overall accesses
system.cpu.dcache.ReadReq_avg_miss_latency::cpu.data 47183.841628                       # average ReadReq miss latency
system.cpu.dcache.ReadReq_avg_miss_latency::total 47183.841628                       # average ReadReq miss latency
system.cpu.dcache.WriteReq_avg_miss_latency::cpu.data 68875.023941                       # average WriteReq miss latency
system.cpu.dcache.WriteReq_avg_miss_latency::total 68875.023941                       # average WriteReq miss latency
system.cpu.dcache.demand_avg_miss_latency::cpu.data 55699.627123                       # average overall miss latency
system.cpu.dcache.demand_avg_miss_latency::total 55699.627123                       # average overall miss latency
system.cpu.dcache.overall_avg_miss_latency::cpu.data 54847.026187                       # average overall miss latency
system.cpu.dcache.overall_avg_miss_latency::total 54847.026187                       # average overall miss latency
system.cpu.dcache.blocked_cycles::no_mshrs      1195885                       # number of cycles access was blocked
system.cpu.dcache.blocked_cycles::no_targets            0                       # number of cycles access was blocked
system.cpu.dcache.blocked::no_mshrs             20159                       # number of cycles access was blocked
system.cpu.dcache.blocked::no_targets               0                       # number of cycles access was blocked
system.cpu.dcache.avg_blocked_cycles::no_mshrs    59.322635                       # average number of cycles each access was blocked
system.cpu.dcache.avg_blocked_cycles::no_targets          nan                       # average number of cycles each access was blocked
system.cpu.dcache.fast_writes                       0                       # number of fast writes performed
system.cpu.dcache.cache_copies                      0                       # number of cache copies performed
system.cpu.dcache.writebacks::writebacks      2071111                       # number of writebacks
system.cpu.dcache.writebacks::total           2071111                       # number of writebacks
system.cpu.dcache.ReadReq_mshr_misses::cpu.data      2560753                       # number of ReadReq MSHR misses
system.cpu.dcache.ReadReq_mshr_misses::total      2560753                       # number of ReadReq MSHR misses
system.cpu.dcache.WriteReq_mshr_misses::cpu.data      1655117                       # number of WriteReq MSHR misses
system.cpu.dcache.WriteReq_mshr_misses::total      1655117                       # number of WriteReq MSHR misses
system.cpu.dcache.SoftPFReq_mshr_misses::cpu.data        65536                       # number of SoftPFReq MSHR misses
system.cpu.dcache.SoftPFReq_mshr_misses::total        65536                       # number of SoftPFReq MSHR misses
system.cpu.dcache.demand_mshr_misses::cpu.data      4215870                       # number of demand (read+write) MSHR misses
system.cpu.dcache.demand_mshr_misses::total      4215870                       # number of demand (read+write) MSHR misses
system.cpu.dcache.overall_mshr_misses::cpu.data      4281406                       # number of overall MSHR misses
system.cpu.dcache.overall_mshr_misses::total      4281406                       # number of overall MSHR misses
system.cpu.dcache.ReadReq_mshr_miss_latency::cpu.data 118265411000                       # number of ReadReq MSHR miss cycles
system.cpu.dcache.ReadReq_mshr_miss_latency::total 118265411000                       # number of ReadReq MSHR miss cycles
system.cpu.dcache.WriteReq_mshr_miss_latency::cpu.data 112341106000                       # number of WriteReq MSHR miss cycles
system.cpu.dcache.WriteReq_mshr_miss_latency::total 112341106000                       # number of WriteReq MSHR miss cycles
system.cpu.dcache.SoftPFReq_mshr_miss_latency::cpu.data   5602680429                       # number of SoftPFReq MSHR miss cycles
system.cpu.dcache.SoftPFReq_mshr_miss_latency::total   5602680429                       # number of SoftPFReq MSHR miss cycles
system.cpu.dcache.demand_mshr_miss_latency::cpu.data 230606517000                       # number of demand (read+write) MSHR miss cycles
system.cpu.dcache.demand_mshr_miss_latency::total 230606517000                       # number of demand (read+write) MSHR miss cycles
system.cpu.dcache.overall_mshr_miss_latency::cpu.data 236209197429                       # number of overall MSHR miss cycles
system.cpu.dcache.overall_mshr_miss_latency::total 236209197429                       # number of overall MSHR miss cycles
system.cpu.dcache.ReadReq_mshr_miss_rate::cpu.data     0.011229                       # mshr miss rate for ReadReq accesses
system.cpu.dcache.ReadReq_mshr_miss_rate::total     0.011229                       # mshr miss rate for ReadReq accesses
system.cpu.dcache.WriteReq_mshr_miss_rate::cpu.data     0.021577                       # mshr miss rate for WriteReq accesses
system.cpu.dcache.WriteReq_mshr_miss_rate::total     0.021577                       # mshr miss rate for WriteReq accesses
system.cpu.dcache.SoftPFReq_mshr_miss_rate::cpu.data            1                       # mshr miss rate for SoftPFReq accesses
system.cpu.dcache.SoftPFReq_mshr_miss_rate::total            1                       # mshr miss rate for SoftPFReq accesses
system.cpu.dcache.demand_mshr_miss_rate::cpu.data     0.013834                       # mshr miss rate for demand accesses
system.cpu.dcache.demand_mshr_miss_rate::total     0.013834                       # mshr miss rate for demand accesses
system.cpu.dcache.overall_mshr_miss_rate::cpu.data     0.014046                       # mshr miss rate for overall accesses
system.cpu.dcache.overall_mshr_miss_rate::total     0.014046                       # mshr miss rate for overall accesses
system.cpu.dcache.ReadReq_avg_mshr_miss_latency::cpu.data 46183.841628                       # average ReadReq mshr miss latency
system.cpu.dcache.ReadReq_avg_mshr_miss_latency::total 46183.841628                       # average ReadReq mshr miss latency
system.cpu.dcache.WriteReq_avg_mshr_miss_latency::cpu.data 67875.023941                       # average WriteReq mshr miss latency
system.cpu.dcache.WriteReq_avg_mshr_miss_latency::total 67875.023941                       # average WriteReq mshr miss latency
system.cpu.dcache.SoftPFReq_avg_mshr_miss_latency::cpu.data 85490.118851                       # average SoftPFReq mshr miss latency
system.cpu.dcache.SoftPFReq_avg_mshr_miss_latency::total 85490.118851                       # average SoftPFReq mshr miss latency
system.cpu.dcache.demand_avg_mshr_miss_latency::cpu.data 54699.627123                       # average overall mshr miss latency
system.cpu.dcache.demand_avg_mshr_miss_latency::total 54699.627123                       # average overall mshr miss latency
system.cpu.dcache.overall_avg_mshr_miss_latency::cpu.data 55170.940908                       # average overall mshr miss latency
system.cpu.dcache.overall_avg_mshr_miss_latency::total 55170.940908                       # average overall mshr miss latency
system.cpu.dcache.no_allocate_misses                0                       # Number of misses that were no-allocate
system.cpu.dtb_walker_cache.tags.replacements            0                       # number of replacements
system.cpu.dtb_walker_cache.tags.tagsinuse            0                       # Cycle average of tags in use
system.cpu.dtb_walker_cache.tags.total_refs            0                       # Total number of references to valid blocks.
system.cpu.dtb_walker_cache.tags.sampled_refs            0                       # Sample count of references to valid blocks.
system.cpu.dtb_walker_cache.tags.avg_refs          nan                       # Average number of references to valid blocks.
system.cpu.dtb_walker_cache.tags.warmup_cycle            0                       # Cycle when the warmup percentage was hit.
system.cpu.dtb_walker_cache.tags.tag_accesses            0                       # Number of tag accesses
system.cpu.dtb_walker_cache.tags.data_accesses            0                       # Number of data accesses
system.cpu.dtb_walker_cache.blocked_cycles::no_mshrs            0                       # number of cycles access was blocked
system.cpu.dtb_walker_cache.blocked_cycles::no_targets            0                       # number of cycles access was blocked
system.cpu.dtb_walker_cache.blocked::no_mshrs            0                       # number of cycles access was blocked
system.cpu.dtb_walker_cache.blocked::no_targets            0                       # number of cycles access was blocked
system.cpu.dtb_walker_cache.avg_blocked_cycles::no_mshrs          nan                       # average number of cycles each access was blocked
system.cpu.dtb_walker_cache.avg_blocked_cycles::no_targets          nan                       # average number of cycles each access was blocked
system.cpu.dtb_walker_cache.fast_writes             0                       # number of fast writes performed
system.cpu.dtb_walker_cache.cache_copies            0                       # number of cache copies performed
system.cpu.dtb_walker_cache.no_allocate_misses            0                       # Number of misses that were no-allocate
system.cpu.icache.tags.replacements               276                       # number of replacements
system.cpu.icache.tags.tagsinuse           508.575187                       # Cycle average of tags in use
system.cpu.icache.tags.total_refs           687817804                       # Total number of references to valid blocks.
system.cpu.icache.tags.sampled_refs              1001                       # Sample count of references to valid blocks.
system.cpu.icache.tags.avg_refs          687130.673327                       # Average number of references to valid blocks.
system.cpu.icache.tags.warmup_cycle                 0                       # Cycle when the warmup percentage was hit.
system.cpu.icache.tags.occ_blocks::cpu.inst   508.575187                       # Average occupied blocks per requestor
system.cpu.icache.tags.occ_percent::cpu.inst     0.496655                       # Average percentage of cache occupancy
system.cpu.icache.tags.occ_percent::total     0.496655                       # Average percentage of cache occupancy
system.cpu.icache.tags.occ_task_id_blocks::1024          725                       # Occupied blocks per task id
system.cpu.icache.tags.age_task_id_blocks_1024::4          725                       # Occupied blocks per task id
system.cpu.icache.tags.occ_task_id_percent::1024     0.708008                       # Percentage of cache occupancy per task id
system.cpu.icache.tags.tag_accesses         687819806                       # Number of tag accesses
system.cpu.icache.tags.data_accesses        687819806                       # Number of data accesses
system.cpu.icache.ReadReq_hits::cpu.inst    687817804                       # number of ReadReq hits
system.cpu.icache.ReadReq_hits::total       687817804                       # number of ReadReq hits
system.cpu.icache.demand_hits::cpu.inst     687817804                       # number of demand (read+write) hits
system.cpu.icache.demand_hits::total        687817804                       # number of demand (read+write) hits
system.cpu.icache.overall_hits::cpu.inst    687817804                       # number of overall hits
system.cpu.icache.overall_hits::total       687817804                       # number of overall hits
system.cpu.icache.ReadReq_misses::cpu.inst         1001                       # number of ReadReq misses
system.cpu.icache.ReadReq_misses::total          1001                       # number of ReadReq misses
system.cpu.icache.demand_misses::cpu.inst         1001                       # number of demand (read+write) misses
system.cpu.icache.demand_misses::total           1001                       # number of demand (read+write) misses
system.cpu.icache.overall_misses::cpu.inst         1001                       # number of overall misses
system.cpu.icache.overall_misses::total          1001                       # number of overall misses
system.cpu.icache.ReadReq_miss_latency::cpu.inst     77627500                       # number of ReadReq miss cycles
system.cpu.icache.ReadReq_miss_latency::total     77627500                       # number of ReadReq miss cycles
system.cpu.icache.demand_miss_latency::cpu.inst     77627500                       # number of demand (read+write) miss cycles
system.cpu.icache.demand_miss_latency::total     77627500                       # number of demand (read+write) miss cycles
system.cpu.icache.overall_miss_latency::cpu.inst     77627500                       # number of overall miss cycles
system.cpu.icache.overall_miss_latency::total     77627500                       # number of overall miss cycles
system.cpu.icache.ReadReq_accesses::cpu.inst    687818805                       # number of ReadReq accesses(hits+misses)
system.cpu.icache.ReadReq_accesses::total    687818805                       # number of ReadReq accesses(hits+misses)
system.cpu.icache.demand_accesses::cpu.inst    687818805                       # number of demand (read+write) accesses
system.cpu.icache.demand_accesses::total    687818805                       # number of demand (read+write) accesses
system.cpu.icache.overall_accesses::cpu.inst    687818805                       # number of overall (read+write) accesses
system.cpu.icache.overall_accesses::total    687818805                       # number of overall (read+write) accesses
system.cpu.icache.ReadReq_miss_rate::cpu.inst     0.000001                       # miss rate for ReadReq accesses
system.cpu.icache.ReadReq_miss_rate::total     0.000001                       # miss rate for ReadReq accesses
system.cpu.icache.demand_miss_rate::cpu.inst     0.000001                       # miss rate for demand accesses
system.cpu.icache.demand_miss_rate::total     0.000001                       # miss rate for demand accesses
system.cpu.icache.overall_miss_rate::cpu.inst     0.000001                       # miss rate for overall accesses
system.cpu.icache.overall_miss_rate::total     0.000001                       # miss rate for overall accesses
system.cpu.icache.ReadReq_avg_miss_latency::cpu.inst 77549.950050                       # average ReadReq miss latency
system.cpu.icache.ReadReq_avg_miss_latency::total 77549.950050                       # average ReadReq miss latency
system.cpu.icache.demand_avg_miss_latency::cpu.inst 77549.950050                       # average overall miss latency
system.cpu.icache.demand_avg_miss_latency::total 77549.950050                       # average overall miss latency
system.cpu.icache.overall_avg_miss_latency::cpu.inst 77549.950050                       # average overall miss latency
system.cpu.icache.overall_avg_miss_latency::total 77549.950050                       # average overall miss latency
system.cpu.icache.blocked_cycles::no_mshrs            0                       # number of cycles access was blocked
system.cpu.icache.blocked_cycles::no_targets            0                       # number of cycles access was blocked
system.cpu.icache.blocked::no_mshrs                 0                       # number of cycles access was blocked
system.cpu.icache.blocked::no_targets               0                       # number of cycles access was blocked
system.cpu.icache.avg_blocked_cycles::no_mshrs          nan                       # average number of cycles each access was blocked
system.cpu.icache.avg_blocked_cycles::no_targets          nan                       # average number of cycles each access was blocked
system.cpu.icache.fast_writes                       0                       # number of fast writes performed
system.cpu.icache.cache_copies                      0                       # number of cache copies performed
system.cpu.icache.writebacks::writebacks          276                       # number of writebacks
system.cpu.icache.writebacks::total               276                       # number of writebacks
system.cpu.icache.ReadReq_mshr_misses::cpu.inst         1001                       # number of ReadReq MSHR misses
system.cpu.icache.ReadReq_mshr_misses::total         1001                       # number of ReadReq MSHR misses
system.cpu.icache.demand_mshr_misses::cpu.inst         1001                       # number of demand (read+write) MSHR misses
system.cpu.icache.demand_mshr_misses::total         1001                       # number of demand (read+write) MSHR misses
system.cpu.icache.overall_mshr_misses::cpu.inst         1001                       # number of overall MSHR misses
system.cpu.icache.overall_mshr_misses::total         1001                       # number of overall MSHR misses
system.cpu.icache.ReadReq_mshr_miss_latency::cpu.inst     76626500                       # number of ReadReq MSHR miss cycles
system.cpu.icache.ReadReq_mshr_miss_latency::total     76626500                       # number of ReadReq MSHR miss cycles
system.cpu.icache.demand_mshr_miss_latency::cpu.inst     76626500                       # number of demand (read+write) MSHR miss cycles
system.cpu.icache.demand_mshr_miss_latency::total     76626500                       # number of demand (read+write) MSHR miss cycles
system.cpu.icache.overall_mshr_miss_latency::cpu.inst     76626500                       # number of overall MSHR miss cycles
system.cpu.icache.overall_mshr_miss_latency::total     76626500                       # number of overall MSHR miss cycles
system.cpu.icache.ReadReq_mshr_miss_rate::cpu.inst     0.000001                       # mshr miss rate for ReadReq accesses
system.cpu.icache.ReadReq_mshr_miss_rate::total     0.000001                       # mshr miss rate for ReadReq accesses
system.cpu.icache.demand_mshr_miss_rate::cpu.inst     0.000001                       # mshr miss rate for demand accesses
system.cpu.icache.demand_mshr_miss_rate::total     0.000001                       # mshr miss rate for demand accesses
system.cpu.icache.overall_mshr_miss_rate::cpu.inst     0.000001                       # mshr miss rate for overall accesses
system.cpu.icache.overall_mshr_miss_rate::total     0.000001                       # mshr miss rate for overall accesses
system.cpu.icache.ReadReq_avg_mshr_miss_latency::cpu.inst 76549.950050                       # average ReadReq mshr miss latency
system.cpu.icache.ReadReq_avg_mshr_miss_latency::total 76549.950050                       # average ReadReq mshr miss latency
system.cpu.icache.demand_avg_mshr_miss_latency::cpu.inst 76549.950050                       # average overall mshr miss latency
system.cpu.icache.demand_avg_mshr_miss_latency::total 76549.950050                       # average overall mshr miss latency
system.cpu.icache.overall_avg_mshr_miss_latency::cpu.inst 76549.950050                       # average overall mshr miss latency
system.cpu.icache.overall_avg_mshr_miss_latency::total 76549.950050                       # average overall mshr miss latency
system.cpu.icache.no_allocate_misses                0                       # Number of misses that were no-allocate
system.cpu.itb_walker_cache.tags.replacements            0                       # number of replacements
system.cpu.itb_walker_cache.tags.tagsinuse            0                       # Cycle average of tags in use
system.cpu.itb_walker_cache.tags.total_refs            0                       # Total number of references to valid blocks.
system.cpu.itb_walker_cache.tags.sampled_refs            0                       # Sample count of references to valid blocks.
system.cpu.itb_walker_cache.tags.avg_refs          nan                       # Average number of references to valid blocks.
system.cpu.itb_walker_cache.tags.warmup_cycle            0                       # Cycle when the warmup percentage was hit.
system.cpu.itb_walker_cache.tags.tag_accesses            0                       # Number of tag accesses
system.cpu.itb_walker_cache.tags.data_accesses            0                       # Number of data accesses
system.cpu.itb_walker_cache.blocked_cycles::no_mshrs            0                       # number of cycles access was blocked
system.cpu.itb_walker_cache.blocked_cycles::no_targets            0                       # number of cycles access was blocked
system.cpu.itb_walker_cache.blocked::no_mshrs            0                       # number of cycles access was blocked
system.cpu.itb_walker_cache.blocked::no_targets            0                       # number of cycles access was blocked
system.cpu.itb_walker_cache.avg_blocked_cycles::no_mshrs          nan                       # average number of cycles each access was blocked
system.cpu.itb_walker_cache.avg_blocked_cycles::no_targets          nan                       # average number of cycles each access was blocked
system.cpu.itb_walker_cache.fast_writes             0                       # number of fast writes performed
system.cpu.itb_walker_cache.cache_copies            0                       # number of cache copies performed
system.cpu.itb_walker_cache.no_allocate_misses            0                       # Number of misses that were no-allocate
system.l2.tags.replacements                   2738932                       # number of replacements
system.l2.tags.tagsinuse                 15773.867358                       # Cycle average of tags in use
system.l2.tags.total_refs                     4076518                       # Total number of references to valid blocks.
system.l2.tags.sampled_refs                   2755111                       # Sample count of references to valid blocks.
system.l2.tags.avg_refs                      1.479620                       # Average number of references to valid blocks.
system.l2.tags.warmup_cycle               45327980500                       # Cycle when the warmup percentage was hit.
system.l2.tags.occ_blocks::writebacks     7687.031208                       # Average occupied blocks per requestor
system.l2.tags.occ_blocks::cpu.inst          7.682836                       # Average occupied blocks per requestor
system.l2.tags.occ_blocks::cpu.data       8079.153315                       # Average occupied blocks per requestor
system.l2.tags.occ_percent::writebacks       0.469179                       # Average percentage of cache occupancy
system.l2.tags.occ_percent::cpu.inst         0.000469                       # Average percentage of cache occupancy
system.l2.tags.occ_percent::cpu.data         0.493112                       # Average percentage of cache occupancy
system.l2.tags.occ_percent::total            0.962760                       # Average percentage of cache occupancy
system.l2.tags.occ_task_id_blocks::1024         16179                       # Occupied blocks per task id
system.l2.tags.age_task_id_blocks_1024::2           22                       # Occupied blocks per task id
system.l2.tags.age_task_id_blocks_1024::3           16                       # Occupied blocks per task id
system.l2.tags.age_task_id_blocks_1024::4        16141                       # Occupied blocks per task id
system.l2.tags.occ_task_id_percent::1024     0.987488                       # Percentage of cache occupancy per task id
system.l2.tags.tag_accesses                  12973292                       # Number of tag accesses
system.l2.tags.data_accesses                 12973292                       # Number of data accesses
system.l2.WritebackDirty_hits::writebacks      2071111                       # number of WritebackDirty hits
system.l2.WritebackDirty_hits::total          2071111                       # number of WritebackDirty hits
system.l2.WritebackClean_hits::writebacks          276                       # number of WritebackClean hits
system.l2.WritebackClean_hits::total              276                       # number of WritebackClean hits
system.l2.ReadExReq_hits::cpu.data             315582                       # number of ReadExReq hits
system.l2.ReadExReq_hits::total                315582                       # number of ReadExReq hits
system.l2.ReadCleanReq_hits::cpu.inst              29                       # number of ReadCleanReq hits
system.l2.ReadCleanReq_hits::total                 29                       # number of ReadCleanReq hits
system.l2.ReadSharedReq_hits::cpu.data        1222791                       # number of ReadSharedReq hits
system.l2.ReadSharedReq_hits::total           1222791                       # number of ReadSharedReq hits
system.l2.demand_hits::cpu.inst                    29                       # number of demand (read+write) hits
system.l2.demand_hits::cpu.data               1538373                       # number of demand (read+write) hits
system.l2.demand_hits::total                  1538402                       # number of demand (read+write) hits
system.l2.overall_hits::cpu.inst                   29                       # number of overall hits
system.l2.overall_hits::cpu.data              1538373                       # number of overall hits
system.l2.overall_hits::total                 1538402                       # number of overall hits
system.l2.ReadExReq_misses::cpu.data          1339535                       # number of ReadExReq misses
system.l2.ReadExReq_misses::total             1339535                       # number of ReadExReq misses
system.l2.ReadCleanReq_misses::cpu.inst           972                       # number of ReadCleanReq misses
system.l2.ReadCleanReq_misses::total              972                       # number of ReadCleanReq misses
system.l2.ReadSharedReq_misses::cpu.data      1403498                       # number of ReadSharedReq misses
system.l2.ReadSharedReq_misses::total         1403498                       # number of ReadSharedReq misses
system.l2.demand_misses::cpu.inst                 972                       # number of demand (read+write) misses
system.l2.demand_misses::cpu.data             2743033                       # number of demand (read+write) misses
system.l2.demand_misses::total                2744005                       # number of demand (read+write) misses
system.l2.overall_misses::cpu.inst                972                       # number of overall misses
system.l2.overall_misses::cpu.data            2743033                       # number of overall misses
system.l2.overall_misses::total               2744005                       # number of overall misses
system.l2.ReadExReq_miss_latency::cpu.data 106544761500                       # number of ReadExReq miss cycles
system.l2.ReadExReq_miss_latency::total  106544761500                       # number of ReadExReq miss cycles
system.l2.ReadCleanReq_miss_latency::cpu.inst     74819500                       # number of ReadCleanReq miss cycles
system.l2.ReadCleanReq_miss_latency::total     74819500                       # number of ReadCleanReq miss cycles
system.l2.ReadSharedReq_miss_latency::cpu.data 107089142500                       # number of ReadSharedReq miss cycles
system.l2.ReadSharedReq_miss_latency::total 107089142500                       # number of ReadSharedReq miss cycles
system.l2.demand_miss_latency::cpu.inst      74819500                       # number of demand (read+write) miss cycles
system.l2.demand_miss_latency::cpu.data  213633904000                       # number of demand (read+write) miss cycles
system.l2.demand_miss_latency::total     213708723500                       # number of demand (read+write) miss cycles
system.l2.overall_miss_latency::cpu.inst     74819500                       # number of overall miss cycles
system.l2.overall_miss_latency::cpu.data 213633904000                       # number of overall miss cycles
system.l2.overall_miss_latency::total    213708723500                       # number of overall miss cycles
system.l2.WritebackDirty_accesses::writebacks      2071111                       # number of WritebackDirty accesses(hits+misses)
system.l2.WritebackDirty_accesses::total      2071111                       # number of WritebackDirty accesses(hits+misses)
system.l2.WritebackClean_accesses::writebacks          276                       # number of WritebackClean accesses(hits+misses)
system.l2.WritebackClean_accesses::total          276                       # number of WritebackClean accesses(hits+misses)
system.l2.ReadExReq_accesses::cpu.data        1655117                       # number of ReadExReq accesses(hits+misses)
system.l2.ReadExReq_accesses::total           1655117                       # number of ReadExReq accesses(hits+misses)
system.l2.ReadCleanReq_accesses::cpu.inst         1001                       # number of ReadCleanReq accesses(hits+misses)
system.l2.ReadCleanReq_accesses::total           1001                       # number of ReadCleanReq accesses(hits+misses)
system.l2.ReadSharedReq_accesses::cpu.data      2626289                       # number of ReadSharedReq accesses(hits+misses)
system.l2.ReadSharedReq_accesses::total       2626289                       # number of ReadSharedReq accesses(hits+misses)
system.l2.demand_accesses::cpu.inst              1001                       # number of demand (read+write) accesses
system.l2.demand_accesses::cpu.data           4281406                       # number of demand (read+write) accesses
system.l2.demand_accesses::total              4282407                       # number of demand (read+write) accesses
system.l2.overall_accesses::cpu.inst             1001                       # number of overall (read+write) accesses
system.l2.overall_accesses::cpu.data          4281406                       # number of overall (read+write) accesses
system.l2.overall_accesses::total             4282407                       # number of overall (read+write) accesses
system.l2.ReadExReq_miss_rate::cpu.data      0.809329                       # miss rate for ReadExReq accesses
system.l2.ReadExReq_miss_rate::total         0.809329                       # miss rate for ReadExReq accesses
system.l2.ReadCleanReq_miss_rate::cpu.inst     0.971029                       # miss rate for ReadCleanReq accesses
system.l2.ReadCleanReq_miss_rate::total      0.971029                       # miss rate for ReadCleanReq accesses
system.l2.ReadSharedReq_miss_rate::cpu.data     0.534403                       # miss rate for ReadSharedReq accesses
system.l2.ReadSharedReq_miss_rate::total     0.534403                       # miss rate for ReadSharedReq accesses
system.l2.demand_miss_rate::cpu.inst         0.971029                       # miss rate for demand accesses
system.l2.demand_miss_rate::cpu.data         0.640685                       # miss rate for demand accesses
system.l2.demand_miss_rate::total            0.640762                       # miss rate for demand accesses
system.l2.overall_miss_rate::cpu.inst        0.971029                       # miss rate for overall accesses
system.l2.overall_miss_rate::cpu.data        0.640685                       # miss rate for overall accesses
system.l2.overall_miss_rate::total           0.640762                       # miss rate for overall accesses
system.l2.ReadExReq_avg_miss_latency::cpu.data 79538.617132                       # average ReadExReq miss latency
system.l2.ReadExReq_avg_miss_latency::total 79538.617132                       # average ReadExReq miss latency
system.l2.ReadCleanReq_avg_miss_latency::cpu.inst 76974.794239                       # average ReadCleanReq miss latency
system.l2.ReadCleanReq_avg_miss_latency::total 76974.794239                       # average ReadCleanReq miss latency
system.l2.ReadSharedReq_avg_miss_latency::cpu.data 76301.599646                       # average ReadSharedReq miss latency
system.l2.ReadSharedReq_avg_miss_latency::total 76301.599646                       # average ReadSharedReq miss latency
system.l2.demand_avg_miss_latency::cpu.inst 76974.794239                       # average overall miss latency
system.l2.demand_avg_miss_latency::cpu.data 77882.367438                       # average overall miss latency
system.l2.demand_avg_miss_latency::total 77882.045951                       # average overall miss latency
system.l2.overall_avg_miss_latency::cpu.inst 76974.794239                       # average overall miss latency
system.l2.overall_avg_miss_latency::cpu.data 77882.367438                       # average overall miss latency
system.l2.overall_avg_miss_latency::total 77882.045951                       # average overall miss latency
system.l2.blocked_cycles::no_mshrs                  0                       # number of cycles access was blocked
system.l2.blocked_cycles::no_targets                0                       # number of cycles access was blocked
system.l2.blocked::no_mshrs                         0                       # number of cycles access was blocked
system.l2.blocked::no_targets                       0                       # number of cycles access was blocked
system.l2.avg_blocked_cycles::no_mshrs            nan                       # average number of cycles each access was blocked
system.l2.avg_blocked_cycles::no_targets          nan                       # average number of cycles each access was blocked
system.l2.fast_writes                               0                       # number of fast writes performed
system.l2.cache_copies                              0                       # number of cache copies performed
system.l2.writebacks::writebacks              1447691                       # number of writebacks
system.l2.writebacks::total                   1447691                       # number of writebacks
system.l2.CleanEvict_mshr_misses::writebacks        76219                       # number of CleanEvict MSHR misses
system.l2.CleanEvict_mshr_misses::total         76219                       # number of CleanEvict MSHR misses
system.l2.ReadExReq_mshr_misses::cpu.data      1339535                       # number of ReadExReq MSHR misses
system.l2.ReadExReq_mshr_misses::total        1339535                       # number of ReadExReq MSHR misses
system.l2.ReadCleanReq_mshr_misses::cpu.inst          972                       # number of ReadCleanReq MSHR misses
system.l2.ReadCleanReq_mshr_misses::total          972                       # number of ReadCleanReq MSHR misses
system.l2.ReadSharedReq_mshr_misses::cpu.data      1403498                       # number of ReadSharedReq MSHR misses
system.l2.ReadSharedReq_mshr_misses::total      1403498                       # number of ReadSharedReq MSHR misses
system.l2.demand_mshr_misses::cpu.inst            972                       # number of demand (read+write) MSHR misses
system.l2.demand_mshr_misses::cpu.data        2743033                       # number of demand (read+write) MSHR misses
system.l2.demand_mshr_misses::total           2744005                       # number of demand (read+write) MSHR misses
system.l2.overall_mshr_misses::cpu.inst           972                       # number of overall MSHR misses
system.l2.overall_mshr_misses::cpu.data       2743033                       # number of overall MSHR misses
system.l2.overall_mshr_misses::total          2744005                       # number of overall MSHR misses
system.l2.ReadExReq_mshr_miss_latency::cpu.data  93149411500                       # number of ReadExReq MSHR miss cycles
system.l2.ReadExReq_mshr_miss_latency::total  93149411500                       # number of ReadExReq MSHR miss cycles
system.l2.ReadCleanReq_mshr_miss_latency::cpu.inst     65099500                       # number of ReadCleanReq MSHR miss cycles
system.l2.ReadCleanReq_mshr_miss_latency::total     65099500                       # number of ReadCleanReq MSHR miss cycles
system.l2.ReadSharedReq_mshr_miss_latency::cpu.data  93054162500                       # number of ReadSharedReq MSHR miss cycles
system.l2.ReadSharedReq_mshr_miss_latency::total  93054162500                       # number of ReadSharedReq MSHR miss cycles
system.l2.demand_mshr_miss_latency::cpu.inst     65099500                       # number of demand (read+write) MSHR miss cycles
system.l2.demand_mshr_miss_latency::cpu.data 186203574000                       # number of demand (read+write) MSHR miss cycles
system.l2.demand_mshr_miss_latency::total 186268673500                       # number of demand (read+write) MSHR miss cycles
system.l2.overall_mshr_miss_latency::cpu.inst     65099500                       # number of overall MSHR miss cycles
system.l2.overall_mshr_miss_latency::cpu.data 186203574000                       # number of overall MSHR miss cycles
system.l2.overall_mshr_miss_latency::total 186268673500                       # number of overall MSHR miss cycles
system.l2.CleanEvict_mshr_miss_rate::writebacks          inf                       # mshr miss rate for CleanEvict accesses
system.l2.CleanEvict_mshr_miss_rate::total          inf                       # mshr miss rate for CleanEvict accesses
system.l2.ReadExReq_mshr_miss_rate::cpu.data     0.809329                       # mshr miss rate for ReadExReq accesses
system.l2.ReadExReq_mshr_miss_rate::total     0.809329                       # mshr miss rate for ReadExReq accesses
system.l2.ReadCleanReq_mshr_miss_rate::cpu.inst     0.971029                       # mshr miss rate for ReadCleanReq accesses
system.l2.ReadCleanReq_mshr_miss_rate::total     0.971029                       # mshr miss rate for ReadCleanReq accesses
system.l2.ReadSharedReq_mshr_miss_rate::cpu.data     0.534403                       # mshr miss rate for ReadSharedReq accesses
system.l2.ReadSharedReq_mshr_miss_rate::total     0.534403                       # mshr miss rate for ReadSharedReq accesses
system.l2.demand_mshr_miss_rate::cpu.inst     0.971029                       # mshr miss rate for demand accesses
system.l2.demand_mshr_miss_rate::cpu.data     0.640685                       # mshr miss rate for demand accesses
system.l2.demand_mshr_miss_rate::total       0.640762                       # mshr miss rate for demand accesses
system.l2.overall_mshr_miss_rate::cpu.inst     0.971029                       # mshr miss rate for overall accesses
system.l2.overall_mshr_miss_rate::cpu.data     0.640685                       # mshr miss rate for overall accesses
system.l2.overall_mshr_miss_rate::total      0.640762                       # mshr miss rate for overall accesses
system.l2.ReadExReq_avg_mshr_miss_latency::cpu.data 69538.617132                       # average ReadExReq mshr miss latency
system.l2.ReadExReq_avg_mshr_miss_latency::total 69538.617132                       # average ReadExReq mshr miss latency
system.l2.ReadCleanReq_avg_mshr_miss_latency::cpu.inst 66974.794239                       # average ReadCleanReq mshr miss latency
system.l2.ReadCleanReq_avg_mshr_miss_latency::total 66974.794239                       # average ReadCleanReq mshr miss latency
system.l2.ReadSharedReq_avg_mshr_miss_latency::cpu.data 66301.599646                       # average ReadSharedReq mshr miss latency
system.l2.ReadSharedReq_avg_mshr_miss_latency::total 66301.599646                       # average ReadSharedReq mshr miss latency
system.l2.demand_avg_mshr_miss_latency::cpu.inst 66974.794239                       # average overall mshr miss latency
system.l2.demand_avg_mshr_miss_latency::cpu.data 67882.367438                       # average overall mshr miss latency
system.l2.demand_avg_mshr_miss_latency::total 67882.045951                       # average overall mshr miss latency
system.l2.overall_avg_mshr_miss_latency::cpu.inst 66974.794239                       # average overall mshr miss latency
system.l2.overall_avg_mshr_miss_latency::cpu.data 67882.367438                       # average overall mshr miss latency
system.l2.overall_avg_mshr_miss_latency::total 67882.045951                       # average overall mshr miss latency
system.l2.no_allocate_misses                        0                       # Number of misses that were no-allocate
system.membus.trans_dist::ReadResp            1404470                       # Transaction distribution
system.membus.trans_dist::WritebackDirty      1447691                       # Transaction distribution
system.membus.trans_dist::CleanEvict          1279212                       # Transaction distribution
system.membus.trans_dist::ReadExReq           1339535                       # Transaction distribution
system.membus.trans_dist::ReadExResp          1339535                       # Transaction distribution
system.membus.trans_dist::ReadSharedReq       1404470                       # Transaction distribution
system.membus.pkt_count_system.l2.mem_side::system.mem_ctrls.port      8214913                       # Packet count per connected master and slave (bytes)
system.membus.pkt_count_system.l2.mem_side::total      8214913                       # Packet count per connected master and slave (bytes)
system.membus.pkt_count::total                8214913                       # Packet count per connected master and slave (bytes)
system.membus.pkt_size_system.l2.mem_side::system.mem_ctrls.port    268268544                       # Cumulative packet size per connected master and slave (bytes)
system.membus.pkt_size_system.l2.mem_side::total    268268544                       # Cumulative packet size per connected master and slave (bytes)
system.membus.pkt_size::total               268268544                       # Cumulative packet size per connected master and slave (bytes)
system.membus.snoops                                0                       # Total snoops (count)
system.membus.snoop_fanout::samples           5470908                       # Request fanout histogram
system.membus.snoop_fanout::mean                    0                       # Request fanout histogram
system.membus.snoop_fanout::stdev                   0                       # Request fanout histogram
system.membus.snoop_fanout::underflows              0      0.00%      0.00% # Request fanout histogram
system.membus.snoop_fanout::0                 5470908    100.00%    100.00% # Request fanout histogram
system.membus.snoop_fanout::1                       0      0.00%    100.00% # Request fanout histogram
system.membus.snoop_fanout::overflows               0      0.00%    100.00% # Request fanout histogram
system.membus.snoop_fanout::min_value               0                       # Request fanout histogram
system.membus.snoop_fanout::max_value               0                       # Request fanout histogram
system.membus.snoop_fanout::total             5470908                       # Request fanout histogram
system.membus.reqLayer2.occupancy         11292653500                       # Layer occupancy (ticks)
system.membus.reqLayer2.utilization               0.9                       # Layer utilization (%)
system.membus.respLayer1.occupancy        14562982750                       # Layer occupancy (ticks)
system.membus.respLayer1.utilization              1.2                       # Layer utilization (%)
system.tol2bus.snoop_filter.tot_requests      8563065                       # Total number of requests made to the snoop filter.
system.tol2bus.snoop_filter.hit_single_requests      4280658                       # Number of requests hitting in the snoop filter with a single holder of the requested data.
system.tol2bus.snoop_filter.hit_multi_requests            1                       # Number of requests hitting in the snoop filter with multiple (>1) holders of the requested data.
system.tol2bus.snoop_filter.tot_snoops          88248                       # Total number of snoops made to the snoop filter.
system.tol2bus.snoop_filter.hit_single_snoops        88248                       # Number of snoops hitting in the snoop filter with a single holder of the requested data.
system.tol2bus.snoop_filter.hit_multi_snoops            0                       # Number of snoops hitting in the snoop filter with multiple (>1) holders of the requested data.
system.tol2bus.trans_dist::ReadResp           2627290                       # Transaction distribution
system.tol2bus.trans_dist::WritebackDirty      3518802                       # Transaction distribution
system.tol2bus.trans_dist::WritebackClean          276                       # Transaction distribution
system.tol2bus.trans_dist::CleanEvict         3500511                       # Transaction distribution
system.tol2bus.trans_dist::ReadExReq          1655117                       # Transaction distribution
system.tol2bus.trans_dist::ReadExResp         1655117                       # Transaction distribution
system.tol2bus.trans_dist::ReadCleanReq          1001                       # Transaction distribution
system.tol2bus.trans_dist::ReadSharedReq      2626289                       # Transaction distribution
system.tol2bus.pkt_count_system.cpu.icache.mem_side::system.l2.cpu_side         2278                       # Packet count per connected master and slave (bytes)
system.tol2bus.pkt_count_system.cpu.dcache.mem_side::system.l2.cpu_side     12843193                       # Packet count per connected master and slave (bytes)
system.tol2bus.pkt_count::total              12845471                       # Packet count per connected master and slave (bytes)
system.tol2bus.pkt_size_system.cpu.icache.mem_side::system.l2.cpu_side        81728                       # Cumulative packet size per connected master and slave (bytes)
system.tol2bus.pkt_size_system.cpu.dcache.mem_side::system.l2.cpu_side    406561088                       # Cumulative packet size per connected master and slave (bytes)
system.tol2bus.pkt_size::total              406642816                       # Cumulative packet size per connected master and slave (bytes)
system.tol2bus.snoops                         2738932                       # Total snoops (count)
system.tol2bus.snoop_fanout::samples          7021339                       # Request fanout histogram
system.tol2bus.snoop_fanout::mean            0.012569                       # Request fanout histogram
system.tol2bus.snoop_fanout::stdev           0.111403                       # Request fanout histogram
system.tol2bus.snoop_fanout::underflows             0      0.00%      0.00% # Request fanout histogram
system.tol2bus.snoop_fanout::0                6933090     98.74%     98.74% # Request fanout histogram
system.tol2bus.snoop_fanout::1                  88249      1.26%    100.00% # Request fanout histogram
system.tol2bus.snoop_fanout::2                      0      0.00%    100.00% # Request fanout histogram
system.tol2bus.snoop_fanout::3                      0      0.00%    100.00% # Request fanout histogram
system.tol2bus.snoop_fanout::4                      0      0.00%    100.00% # Request fanout histogram
system.tol2bus.snoop_fanout::overflows              0      0.00%    100.00% # Request fanout histogram
system.tol2bus.snoop_fanout::min_value              0                       # Request fanout histogram
system.tol2bus.snoop_fanout::max_value              1                       # Request fanout histogram
system.tol2bus.snoop_fanout::total            7021339                       # Request fanout histogram
system.tol2bus.reqLayer0.occupancy         6352919500                       # Layer occupancy (ticks)
system.tol2bus.reqLayer0.utilization              0.5                       # Layer utilization (%)
system.tol2bus.respLayer0.occupancy           1501500                       # Layer occupancy (ticks)
system.tol2bus.respLayer0.utilization             0.0                       # Layer utilization (%)
system.tol2bus.respLayer1.occupancy        6422109000                       # Layer occupancy (ticks)
system.tol2bus.respLayer1.utilization             0.5                       # Layer utilization (%)

---------- End Simulation Statistics   ----------
