
---------- Begin Simulation Statistics ----------
sim_seconds                                  1.232011                       # Number of seconds simulated
sim_ticks                                1232011014500                       # Number of ticks simulated
final_tick                               1232011014500                       # Number of ticks from beginning of simulation (restored from checkpoints and never reset)
sim_freq                                 1000000000000                       # Frequency of simulated ticks
host_inst_rate                                 611379                       # Simulator instruction rate (inst/s)
host_op_rate                                   891315                       # Simulator op (including micro ops) rate (op/s)
host_tick_rate                             1506451758                       # Simulator tick rate (ticks/s)
host_mem_usage                                 833984                       # Number of bytes of host memory used
host_seconds                                   817.82                       # Real time elapsed on the host
sim_insts                                   500000001                       # Number of instructions simulated
sim_ops                                     728937824                       # Number of ops (including micro ops) simulated
system.voltage_domain.voltage                       1                       # Voltage in Volts
system.clk_domain.clock                          1000                       # Clock period in ticks
system.mem_ctrls.bytes_read::cpu.inst           60992                       # Number of bytes read from this memory
system.mem_ctrls.bytes_read::cpu.data       176162112                       # Number of bytes read from this memory
system.mem_ctrls.bytes_read::total          176223104                       # Number of bytes read from this memory
system.mem_ctrls.bytes_inst_read::cpu.inst        60992                       # Number of instructions bytes read from this memory
system.mem_ctrls.bytes_inst_read::total         60992                       # Number of instructions bytes read from this memory
system.mem_ctrls.bytes_written::writebacks     92793472                       # Number of bytes written to this memory
system.mem_ctrls.bytes_written::total        92793472                       # Number of bytes written to this memory
system.mem_ctrls.num_reads::cpu.inst              953                       # Number of read requests responded to by this memory
system.mem_ctrls.num_reads::cpu.data          2752533                       # Number of read requests responded to by this memory
system.mem_ctrls.num_reads::total             2753486                       # Number of read requests responded to by this memory
system.mem_ctrls.num_writes::writebacks       1449898                       # Number of write requests responded to by this memory
system.mem_ctrls.num_writes::total            1449898                       # Number of write requests responded to by this memory
system.mem_ctrls.bw_read::cpu.inst              49506                       # Total read bandwidth from this memory (bytes/s)
system.mem_ctrls.bw_read::cpu.data          142987449                       # Total read bandwidth from this memory (bytes/s)
system.mem_ctrls.bw_read::total             143036955                       # Total read bandwidth from this memory (bytes/s)
system.mem_ctrls.bw_inst_read::cpu.inst         49506                       # Instruction read bandwidth from this memory (bytes/s)
system.mem_ctrls.bw_inst_read::total            49506                       # Instruction read bandwidth from this memory (bytes/s)
system.mem_ctrls.bw_write::writebacks        75318703                       # Write bandwidth from this memory (bytes/s)
system.mem_ctrls.bw_write::total             75318703                       # Write bandwidth from this memory (bytes/s)
system.mem_ctrls.bw_total::writebacks        75318703                       # Total bandwidth to/from this memory (bytes/s)
system.mem_ctrls.bw_total::cpu.inst             49506                       # Total bandwidth to/from this memory (bytes/s)
system.mem_ctrls.bw_total::cpu.data         142987449                       # Total bandwidth to/from this memory (bytes/s)
system.mem_ctrls.bw_total::total            218355658                       # Total bandwidth to/from this memory (bytes/s)
system.mem_ctrls.readReqs                     2753486                       # Number of read requests accepted
system.mem_ctrls.writeReqs                    1449898                       # Number of write requests accepted
system.mem_ctrls.readBursts                   2753486                       # Number of DRAM read bursts, including those serviced by the write queue
system.mem_ctrls.writeBursts                  1449898                       # Number of DRAM write bursts, including those merged in the write queue
system.mem_ctrls.bytesReadDRAM              176034944                       # Total number of bytes read from DRAM
system.mem_ctrls.bytesReadWrQ                  188160                       # Total number of bytes read from write queue
system.mem_ctrls.bytesWritten                92770560                       # Total number of bytes written to DRAM
system.mem_ctrls.bytesReadSys               176223104                       # Total read bytes from the system interface side
system.mem_ctrls.bytesWrittenSys             92793472                       # Total written bytes from the system interface side
system.mem_ctrls.servicedByWrQ                   2940                       # Number of DRAM read bursts serviced by the write queue
system.mem_ctrls.mergedWrBursts                   342                       # Number of DRAM write bursts merged with an existing one
system.mem_ctrls.neitherReadNorWriteReqs      1286259                       # Number of requests that are neither read nor write
system.mem_ctrls.perBankRdBursts::0            173721                       # Per bank write bursts
system.mem_ctrls.perBankRdBursts::1            172084                       # Per bank write bursts
system.mem_ctrls.perBankRdBursts::2            172992                       # Per bank write bursts
system.mem_ctrls.perBankRdBursts::3            169509                       # Per bank write bursts
system.mem_ctrls.perBankRdBursts::4            169622                       # Per bank write bursts
system.mem_ctrls.perBankRdBursts::5            168995                       # Per bank write bursts
system.mem_ctrls.perBankRdBursts::6            171139                       # Per bank write bursts
system.mem_ctrls.perBankRdBursts::7            170145                       # Per bank write bursts
system.mem_ctrls.perBankRdBursts::8            167924                       # Per bank write bursts
system.mem_ctrls.perBankRdBursts::9            168152                       # Per bank write bursts
system.mem_ctrls.perBankRdBursts::10           171750                       # Per bank write bursts
system.mem_ctrls.perBankRdBursts::11           172012                       # Per bank write bursts
system.mem_ctrls.perBankRdBursts::12           175136                       # Per bank write bursts
system.mem_ctrls.perBankRdBursts::13           174020                       # Per bank write bursts
system.mem_ctrls.perBankRdBursts::14           174422                       # Per bank write bursts
system.mem_ctrls.perBankRdBursts::15           178923                       # Per bank write bursts
system.mem_ctrls.perBankWrBursts::0             91429                       # Per bank write bursts
system.mem_ctrls.perBankWrBursts::1             90871                       # Per bank write bursts
system.mem_ctrls.perBankWrBursts::2             92300                       # Per bank write bursts
system.mem_ctrls.perBankWrBursts::3             89913                       # Per bank write bursts
system.mem_ctrls.perBankWrBursts::4             89432                       # Per bank write bursts
system.mem_ctrls.perBankWrBursts::5             88808                       # Per bank write bursts
system.mem_ctrls.perBankWrBursts::6             90345                       # Per bank write bursts
system.mem_ctrls.perBankWrBursts::7             90188                       # Per bank write bursts
system.mem_ctrls.perBankWrBursts::8             89153                       # Per bank write bursts
system.mem_ctrls.perBankWrBursts::9             89208                       # Per bank write bursts
system.mem_ctrls.perBankWrBursts::10            90578                       # Per bank write bursts
system.mem_ctrls.perBankWrBursts::11            90225                       # Per bank write bursts
system.mem_ctrls.perBankWrBursts::12            90982                       # Per bank write bursts
system.mem_ctrls.perBankWrBursts::13            91178                       # Per bank write bursts
system.mem_ctrls.perBankWrBursts::14            91614                       # Per bank write bursts
system.mem_ctrls.perBankWrBursts::15            93316                       # Per bank write bursts
system.mem_ctrls.numRdRetry                         0                       # Number of times read queue was full causing retry
system.mem_ctrls.numWrRetry                         0                       # Number of times write queue was full causing retry
system.mem_ctrls.totGap                  1227686497500                       # Total gap between requests
system.mem_ctrls.readPktSize::0                     0                       # Read request sizes (log2)
system.mem_ctrls.readPktSize::1                     0                       # Read request sizes (log2)
system.mem_ctrls.readPktSize::2                     0                       # Read request sizes (log2)
system.mem_ctrls.readPktSize::3                     0                       # Read request sizes (log2)
system.mem_ctrls.readPktSize::4                     0                       # Read request sizes (log2)
system.mem_ctrls.readPktSize::5                     0                       # Read request sizes (log2)
system.mem_ctrls.readPktSize::6               2753486                       # Read request sizes (log2)
system.mem_ctrls.writePktSize::0                    0                       # Write request sizes (log2)
system.mem_ctrls.writePktSize::1                    0                       # Write request sizes (log2)
system.mem_ctrls.writePktSize::2                    0                       # Write request sizes (log2)
system.mem_ctrls.writePktSize::3                    0                       # Write request sizes (log2)
system.mem_ctrls.writePktSize::4                    0                       # Write request sizes (log2)
system.mem_ctrls.writePktSize::5                    0                       # Write request sizes (log2)
system.mem_ctrls.writePktSize::6              1449898                       # Write request sizes (log2)
system.mem_ctrls.rdQLenPdf::0                 2714981                       # What read queue length does an incoming req see
system.mem_ctrls.rdQLenPdf::1                   30901                       # What read queue length does an incoming req see
system.mem_ctrls.rdQLenPdf::2                    2784                       # What read queue length does an incoming req see
system.mem_ctrls.rdQLenPdf::3                    1880                       # What read queue length does an incoming req see
system.mem_ctrls.rdQLenPdf::4                       0                       # What read queue length does an incoming req see
system.mem_ctrls.rdQLenPdf::5                       0                       # What read queue length does an incoming req see
system.mem_ctrls.rdQLenPdf::6                       0                       # What read queue length does an incoming req see
system.mem_ctrls.rdQLenPdf::7                       0                       # What read queue length does an incoming req see
system.mem_ctrls.rdQLenPdf::8                       0                       # What read queue length does an incoming req see
system.mem_ctrls.rdQLenPdf::9                       0                       # What read queue length does an incoming req see
system.mem_ctrls.rdQLenPdf::10                      0                       # What read queue length does an incoming req see
system.mem_ctrls.rdQLenPdf::11                      0                       # What read queue length does an incoming req see
system.mem_ctrls.rdQLenPdf::12                      0                       # What read queue length does an incoming req see
system.mem_ctrls.rdQLenPdf::13                      0                       # What read queue length does an incoming req see
system.mem_ctrls.rdQLenPdf::14                      0                       # What read queue length does an incoming req see
system.mem_ctrls.rdQLenPdf::15                      0                       # What read queue length does an incoming req see
system.mem_ctrls.rdQLenPdf::16                      0                       # What read queue length does an incoming req see
system.mem_ctrls.rdQLenPdf::17                      0                       # What read queue length does an incoming req see
system.mem_ctrls.rdQLenPdf::18                      0                       # What read queue length does an incoming req see
system.mem_ctrls.rdQLenPdf::19                      0                       # What read queue length does an incoming req see
system.mem_ctrls.rdQLenPdf::20                      0                       # What read queue length does an incoming req see
system.mem_ctrls.rdQLenPdf::21                      0                       # What read queue length does an incoming req see
system.mem_ctrls.rdQLenPdf::22                      0                       # What read queue length does an incoming req see
system.mem_ctrls.rdQLenPdf::23                      0                       # What read queue length does an incoming req see
system.mem_ctrls.rdQLenPdf::24                      0                       # What read queue length does an incoming req see
system.mem_ctrls.rdQLenPdf::25                      0                       # What read queue length does an incoming req see
system.mem_ctrls.rdQLenPdf::26                      0                       # What read queue length does an incoming req see
system.mem_ctrls.rdQLenPdf::27                      0                       # What read queue length does an incoming req see
system.mem_ctrls.rdQLenPdf::28                      0                       # What read queue length does an incoming req see
system.mem_ctrls.rdQLenPdf::29                      0                       # What read queue length does an incoming req see
system.mem_ctrls.rdQLenPdf::30                      0                       # What read queue length does an incoming req see
system.mem_ctrls.rdQLenPdf::31                      0                       # What read queue length does an incoming req see
system.mem_ctrls.wrQLenPdf::0                       1                       # What write queue length does an incoming req see
system.mem_ctrls.wrQLenPdf::1                       1                       # What write queue length does an incoming req see
system.mem_ctrls.wrQLenPdf::2                       1                       # What write queue length does an incoming req see
system.mem_ctrls.wrQLenPdf::3                       1                       # What write queue length does an incoming req see
system.mem_ctrls.wrQLenPdf::4                       1                       # What write queue length does an incoming req see
system.mem_ctrls.wrQLenPdf::5                       1                       # What write queue length does an incoming req see
system.mem_ctrls.wrQLenPdf::6                       1                       # What write queue length does an incoming req see
system.mem_ctrls.wrQLenPdf::7                       1                       # What write queue length does an incoming req see
system.mem_ctrls.wrQLenPdf::8                       1                       # What write queue length does an incoming req see
system.mem_ctrls.wrQLenPdf::9                       1                       # What write queue length does an incoming req see
system.mem_ctrls.wrQLenPdf::10                      1                       # What write queue length does an incoming req see
system.mem_ctrls.wrQLenPdf::11                      1                       # What write queue length does an incoming req see
system.mem_ctrls.wrQLenPdf::12                      1                       # What write queue length does an incoming req see
system.mem_ctrls.wrQLenPdf::13                      1                       # What write queue length does an incoming req see
system.mem_ctrls.wrQLenPdf::14                      1                       # What write queue length does an incoming req see
system.mem_ctrls.wrQLenPdf::15                  15361                       # What write queue length does an incoming req see
system.mem_ctrls.wrQLenPdf::16                  16133                       # What write queue length does an incoming req see
system.mem_ctrls.wrQLenPdf::17                  87678                       # What write queue length does an incoming req see
system.mem_ctrls.wrQLenPdf::18                  87896                       # What write queue length does an incoming req see
system.mem_ctrls.wrQLenPdf::19                  88580                       # What write queue length does an incoming req see
system.mem_ctrls.wrQLenPdf::20                  88626                       # What write queue length does an incoming req see
system.mem_ctrls.wrQLenPdf::21                  88655                       # What write queue length does an incoming req see
system.mem_ctrls.wrQLenPdf::22                  89094                       # What write queue length does an incoming req see
system.mem_ctrls.wrQLenPdf::23                  89019                       # What write queue length does an incoming req see
system.mem_ctrls.wrQLenPdf::24                  89010                       # What write queue length does an incoming req see
system.mem_ctrls.wrQLenPdf::25                  88698                       # What write queue length does an incoming req see
system.mem_ctrls.wrQLenPdf::26                  88633                       # What write queue length does an incoming req see
system.mem_ctrls.wrQLenPdf::27                  88697                       # What write queue length does an incoming req see
system.mem_ctrls.wrQLenPdf::28                  88718                       # What write queue length does an incoming req see
system.mem_ctrls.wrQLenPdf::29                  88788                       # What write queue length does an incoming req see
system.mem_ctrls.wrQLenPdf::30                  88613                       # What write queue length does an incoming req see
system.mem_ctrls.wrQLenPdf::31                  88721                       # What write queue length does an incoming req see
system.mem_ctrls.wrQLenPdf::32                  88610                       # What write queue length does an incoming req see
system.mem_ctrls.wrQLenPdf::33                      9                       # What write queue length does an incoming req see
system.mem_ctrls.wrQLenPdf::34                      2                       # What write queue length does an incoming req see
system.mem_ctrls.wrQLenPdf::35                      0                       # What write queue length does an incoming req see
system.mem_ctrls.wrQLenPdf::36                      0                       # What write queue length does an incoming req see
system.mem_ctrls.wrQLenPdf::37                      0                       # What write queue length does an incoming req see
system.mem_ctrls.wrQLenPdf::38                      0                       # What write queue length does an incoming req see
system.mem_ctrls.wrQLenPdf::39                      0                       # What write queue length does an incoming req see
system.mem_ctrls.wrQLenPdf::40                      0                       # What write queue length does an incoming req see
system.mem_ctrls.wrQLenPdf::41                      0                       # What write queue length does an incoming req see
system.mem_ctrls.wrQLenPdf::42                      0                       # What write queue length does an incoming req see
system.mem_ctrls.wrQLenPdf::43                      0                       # What write queue length does an incoming req see
system.mem_ctrls.wrQLenPdf::44                      0                       # What write queue length does an incoming req see
system.mem_ctrls.wrQLenPdf::45                      0                       # What write queue length does an incoming req see
system.mem_ctrls.wrQLenPdf::46                      0                       # What write queue length does an incoming req see
system.mem_ctrls.wrQLenPdf::47                      0                       # What write queue length does an incoming req see
system.mem_ctrls.wrQLenPdf::48                      0                       # What write queue length does an incoming req see
system.mem_ctrls.wrQLenPdf::49                      0                       # What write queue length does an incoming req see
system.mem_ctrls.wrQLenPdf::50                      0                       # What write queue length does an incoming req see
system.mem_ctrls.wrQLenPdf::51                      0                       # What write queue length does an incoming req see
system.mem_ctrls.wrQLenPdf::52                      0                       # What write queue length does an incoming req see
system.mem_ctrls.wrQLenPdf::53                      0                       # What write queue length does an incoming req see
system.mem_ctrls.wrQLenPdf::54                      0                       # What write queue length does an incoming req see
system.mem_ctrls.wrQLenPdf::55                      0                       # What write queue length does an incoming req see
system.mem_ctrls.wrQLenPdf::56                      0                       # What write queue length does an incoming req see
system.mem_ctrls.wrQLenPdf::57                      0                       # What write queue length does an incoming req see
system.mem_ctrls.wrQLenPdf::58                      0                       # What write queue length does an incoming req see
system.mem_ctrls.wrQLenPdf::59                      0                       # What write queue length does an incoming req see
system.mem_ctrls.wrQLenPdf::60                      0                       # What write queue length does an incoming req see
system.mem_ctrls.wrQLenPdf::61                      0                       # What write queue length does an incoming req see
system.mem_ctrls.wrQLenPdf::62                      0                       # What write queue length does an incoming req see
system.mem_ctrls.wrQLenPdf::63                      0                       # What write queue length does an incoming req see
system.mem_ctrls.bytesPerActivate::samples       859869                       # Bytes accessed per row activation
system.mem_ctrls.bytesPerActivate::mean    312.612158                       # Bytes accessed per row activation
system.mem_ctrls.bytesPerActivate::gmean   167.752481                       # Bytes accessed per row activation
system.mem_ctrls.bytesPerActivate::stdev   351.726804                       # Bytes accessed per row activation
system.mem_ctrls.bytesPerActivate::0-127       415360     48.31%     48.31% # Bytes accessed per row activation
system.mem_ctrls.bytesPerActivate::128-255       132906     15.46%     63.76% # Bytes accessed per row activation
system.mem_ctrls.bytesPerActivate::256-383        40973      4.77%     68.53% # Bytes accessed per row activation
system.mem_ctrls.bytesPerActivate::384-511        33214      3.86%     72.39% # Bytes accessed per row activation
system.mem_ctrls.bytesPerActivate::512-639        75877      8.82%     81.21% # Bytes accessed per row activation
system.mem_ctrls.bytesPerActivate::640-767        13044      1.52%     82.73% # Bytes accessed per row activation
system.mem_ctrls.bytesPerActivate::768-895         9274      1.08%     83.81% # Bytes accessed per row activation
system.mem_ctrls.bytesPerActivate::896-1023         9113      1.06%     84.87% # Bytes accessed per row activation
system.mem_ctrls.bytesPerActivate::1024-1151       130108     15.13%    100.00% # Bytes accessed per row activation
system.mem_ctrls.bytesPerActivate::total       859869                       # Bytes accessed per row activation
system.mem_ctrls.rdPerTurnAround::samples        88606                       # Reads before turning the bus around for writes
system.mem_ctrls.rdPerTurnAround::mean      31.041972                       # Reads before turning the bus around for writes
system.mem_ctrls.rdPerTurnAround::gmean     27.771966                       # Reads before turning the bus around for writes
system.mem_ctrls.rdPerTurnAround::stdev     92.955690                       # Reads before turning the bus around for writes
system.mem_ctrls.rdPerTurnAround::0-1023        88594     99.99%     99.99% # Reads before turning the bus around for writes
system.mem_ctrls.rdPerTurnAround::1024-2047            6      0.01%     99.99% # Reads before turning the bus around for writes
system.mem_ctrls.rdPerTurnAround::5120-6143            1      0.00%     99.99% # Reads before turning the bus around for writes
system.mem_ctrls.rdPerTurnAround::7168-8191            2      0.00%    100.00% # Reads before turning the bus around for writes
system.mem_ctrls.rdPerTurnAround::10240-11263            1      0.00%    100.00% # Reads before turning the bus around for writes
system.mem_ctrls.rdPerTurnAround::11264-12287            1      0.00%    100.00% # Reads before turning the bus around for writes
system.mem_ctrls.rdPerTurnAround::17408-18431            1      0.00%    100.00% # Reads before turning the bus around for writes
system.mem_ctrls.rdPerTurnAround::total         88606                       # Reads before turning the bus around for writes
system.mem_ctrls.wrPerTurnAround::samples        88606                       # Writes before turning the bus around for reads
system.mem_ctrls.wrPerTurnAround::mean      16.359389                       # Writes before turning the bus around for reads
system.mem_ctrls.wrPerTurnAround::gmean     16.342191                       # Writes before turning the bus around for reads
system.mem_ctrls.wrPerTurnAround::stdev      0.769837                       # Writes before turning the bus around for reads
system.mem_ctrls.wrPerTurnAround::16            72460     81.78%     81.78% # Writes before turning the bus around for reads
system.mem_ctrls.wrPerTurnAround::17              770      0.87%     82.65% # Writes before turning the bus around for reads
system.mem_ctrls.wrPerTurnAround::18            15074     17.01%     99.66% # Writes before turning the bus around for reads
system.mem_ctrls.wrPerTurnAround::19              291      0.33%     99.99% # Writes before turning the bus around for reads
system.mem_ctrls.wrPerTurnAround::20                7      0.01%    100.00% # Writes before turning the bus around for reads
system.mem_ctrls.wrPerTurnAround::21                1      0.00%    100.00% # Writes before turning the bus around for reads
system.mem_ctrls.wrPerTurnAround::22                1      0.00%    100.00% # Writes before turning the bus around for reads
system.mem_ctrls.wrPerTurnAround::23                2      0.00%    100.00% # Writes before turning the bus around for reads
system.mem_ctrls.wrPerTurnAround::total         88606                       # Writes before turning the bus around for reads
system.mem_ctrls.totQLat                  25681897750                       # Total ticks spent queuing
system.mem_ctrls.totMemAccLat             77254635250                       # Total ticks spent from burst creation until serviced by the DRAM
system.mem_ctrls.totBusLat                13752730000                       # Total ticks spent in databus transfers
system.mem_ctrls.avgQLat                      9337.02                       # Average queueing delay per DRAM burst
system.mem_ctrls.avgBusLat                    5000.00                       # Average bus latency per DRAM burst
system.mem_ctrls.avgMemAccLat                28087.02                       # Average memory access latency per DRAM burst
system.mem_ctrls.avgRdBW                       142.88                       # Average DRAM read bandwidth in MiByte/s
system.mem_ctrls.avgWrBW                        75.30                       # Average achieved write bandwidth in MiByte/s
system.mem_ctrls.avgRdBWSys                    143.04                       # Average system read bandwidth in MiByte/s
system.mem_ctrls.avgWrBWSys                     75.32                       # Average system write bandwidth in MiByte/s
system.mem_ctrls.peakBW                      12800.00                       # Theoretical peak bandwidth in MiByte/s
system.mem_ctrls.busUtil                         1.70                       # Data bus utilization in percentage
system.mem_ctrls.busUtilRead                     1.12                       # Data bus utilization in percentage for reads
system.mem_ctrls.busUtilWrite                    0.59                       # Data bus utilization in percentage for writes
system.mem_ctrls.avgRdQLen                       1.00                       # Average read queue length when enqueuing
system.mem_ctrls.avgWrQLen                      25.85                       # Average write queue length when enqueuing
system.mem_ctrls.readRowHits                  2166155                       # Number of row buffer hits during reads
system.mem_ctrls.writeRowHits                 1174062                       # Number of row buffer hits during writes
system.mem_ctrls.readRowHitRate                 78.75                       # Row buffer hit rate for reads
system.mem_ctrls.writeRowHitRate                80.99                       # Row buffer hit rate for writes
system.mem_ctrls.avgGap                     292070.98                       # Average gap between requests
system.mem_ctrls.pageHitRate                    79.53                       # Row buffer hit rate, read and write combined
system.mem_ctrls_0.actEnergy               3207632400                       # Energy for activate commands per rank (pJ)
system.mem_ctrls_0.preEnergy               1750196250                       # Energy for precharge commands per rank (pJ)
system.mem_ctrls_0.readEnergy             10672014600                       # Energy for read commands per rank (pJ)
system.mem_ctrls_0.writeEnergy             4686893280                       # Energy for write commands per rank (pJ)
system.mem_ctrls_0.refreshEnergy          80468940240                       # Energy for refresh commands per rank (pJ)
system.mem_ctrls_0.actBackEnergy         333422090235                       # Energy for active background per rank (pJ)
system.mem_ctrls_0.preBackEnergy         446730960750                       # Energy for precharge background per rank (pJ)
system.mem_ctrls_0.totalEnergy           880938727755                       # Total energy per rank (pJ)
system.mem_ctrls_0.averagePower            715.041402                       # Core power per rank (mW)
system.mem_ctrls_0.memoryStateTime::IDLE 740787085500                       # Time in different power states
system.mem_ctrls_0.memoryStateTime::REF   41139540000                       # Time in different power states
system.mem_ctrls_0.memoryStateTime::PRE_PDN            0                       # Time in different power states
system.mem_ctrls_0.memoryStateTime::ACT  450084185750                       # Time in different power states
system.mem_ctrls_0.memoryStateTime::ACT_PDN            0                       # Time in different power states
system.mem_ctrls_1.actEnergy               3292977240                       # Energy for activate commands per rank (pJ)
system.mem_ctrls_1.preEnergy               1796763375                       # Energy for precharge commands per rank (pJ)
system.mem_ctrls_1.readEnergy             10782244200                       # Energy for read commands per rank (pJ)
system.mem_ctrls_1.writeEnergy             4706125920                       # Energy for write commands per rank (pJ)
system.mem_ctrls_1.refreshEnergy          80468940240                       # Energy for refresh commands per rank (pJ)
system.mem_ctrls_1.actBackEnergy         341316785745                       # Energy for active background per rank (pJ)
system.mem_ctrls_1.preBackEnergy         439805789250                       # Energy for precharge background per rank (pJ)
system.mem_ctrls_1.totalEnergy           882169625970                       # Total energy per rank (pJ)
system.mem_ctrls_1.averagePower            716.040499                       # Core power per rank (mW)
system.mem_ctrls_1.memoryStateTime::IDLE 729201590750                       # Time in different power states
system.mem_ctrls_1.memoryStateTime::REF   41139540000                       # Time in different power states
system.mem_ctrls_1.memoryStateTime::PRE_PDN            0                       # Time in different power states
system.mem_ctrls_1.memoryStateTime::ACT  461669680500                       # Time in different power states
system.mem_ctrls_1.memoryStateTime::ACT_PDN            0                       # Time in different power states
system.cpu_voltage_domain.voltage                   1                       # Voltage in Volts
system.cpu_clk_domain.clock                       500                       # Clock period in ticks
system.cpu.apic_clk_domain.clock                 8000                       # Clock period in ticks
system.cpu.workload.num_syscalls                   89                       # Number of system calls
system.cpu.numCycles                       2464022029                       # number of cpu cycles simulated
system.cpu.numWorkItemsStarted                      0                       # number of work items this cpu started
system.cpu.numWorkItemsCompleted                    0                       # number of work items this cpu completed
system.cpu.committedInsts                   500000001                       # Number of instructions committed
system.cpu.committedOps                     728937824                       # Number of ops (including micro ops) committed
system.cpu.num_int_alu_accesses             727310589                       # Number of integer alu accesses
system.cpu.num_fp_alu_accesses                    843                       # Number of float alu accesses
system.cpu.num_func_calls                     1427761                       # number of times a function call or return occured
system.cpu.num_conditional_control_insts     32105501                       # number of instructions that are conditional controls
system.cpu.num_int_insts                    727310589                       # number of integer instructions
system.cpu.num_fp_insts                           843                       # number of float instructions
system.cpu.num_int_register_reads          1714991297                       # number of times the integer registers were read
system.cpu.num_int_register_writes          612733141                       # number of times the integer registers were written
system.cpu.num_fp_register_reads                 1319                       # number of times the floating registers were read
system.cpu.num_fp_register_writes                 577                       # number of times the floating registers were written
system.cpu.num_cc_register_reads            181720629                       # number of times the CC registers were read
system.cpu.num_cc_register_writes           264518979                       # number of times the CC registers were written
system.cpu.num_mem_refs                     304821783                       # number of memory refs
system.cpu.num_load_insts                   228115222                       # Number of load instructions
system.cpu.num_store_insts                   76706561                       # Number of store instructions
system.cpu.num_idle_cycles                          0                       # Number of idle cycles
system.cpu.num_busy_cycles                 2464022029                       # Number of busy cycles
system.cpu.not_idle_fraction                        1                       # Percentage of non-idle cycles
system.cpu.idle_fraction                            0                       # Percentage of idle cycles
system.cpu.Branches                          38073397                       # Number of branches fetched
system.cpu.op_class::No_OpClass                960306      0.13%      0.13% # Class of executed instruction
system.cpu.op_class::IntAlu                 423024114     58.03%     58.16% # Class of executed instruction
system.cpu.op_class::IntMult                   130951      0.02%     58.18% # Class of executed instruction
system.cpu.op_class::IntDiv                       140      0.00%     58.18% # Class of executed instruction
system.cpu.op_class::FloatAdd                     530      0.00%     58.18% # Class of executed instruction
system.cpu.op_class::FloatCmp                       0      0.00%     58.18% # Class of executed instruction
system.cpu.op_class::FloatCvt                       0      0.00%     58.18% # Class of executed instruction
system.cpu.op_class::FloatMult                      0      0.00%     58.18% # Class of executed instruction
system.cpu.op_class::FloatDiv                       0      0.00%     58.18% # Class of executed instruction
system.cpu.op_class::FloatSqrt                      0      0.00%     58.18% # Class of executed instruction
system.cpu.op_class::SimdAdd                        0      0.00%     58.18% # Class of executed instruction
system.cpu.op_class::SimdAddAcc                     0      0.00%     58.18% # Class of executed instruction
system.cpu.op_class::SimdAlu                        0      0.00%     58.18% # Class of executed instruction
system.cpu.op_class::SimdCmp                        0      0.00%     58.18% # Class of executed instruction
system.cpu.op_class::SimdCvt                        0      0.00%     58.18% # Class of executed instruction
system.cpu.op_class::SimdMisc                       0      0.00%     58.18% # Class of executed instruction
system.cpu.op_class::SimdMult                       0      0.00%     58.18% # Class of executed instruction
system.cpu.op_class::SimdMultAcc                    0      0.00%     58.18% # Class of executed instruction
system.cpu.op_class::SimdShift                      0      0.00%     58.18% # Class of executed instruction
system.cpu.op_class::SimdShiftAcc                   0      0.00%     58.18% # Class of executed instruction
system.cpu.op_class::SimdSqrt                       0      0.00%     58.18% # Class of executed instruction
system.cpu.op_class::SimdFloatAdd                   0      0.00%     58.18% # Class of executed instruction
system.cpu.op_class::SimdFloatAlu                   0      0.00%     58.18% # Class of executed instruction
system.cpu.op_class::SimdFloatCmp                   0      0.00%     58.18% # Class of executed instruction
system.cpu.op_class::SimdFloatCvt                   0      0.00%     58.18% # Class of executed instruction
system.cpu.op_class::SimdFloatDiv                   0      0.00%     58.18% # Class of executed instruction
system.cpu.op_class::SimdFloatMisc                  0      0.00%     58.18% # Class of executed instruction
system.cpu.op_class::SimdFloatMult                  0      0.00%     58.18% # Class of executed instruction
system.cpu.op_class::SimdFloatMultAcc               0      0.00%     58.18% # Class of executed instruction
system.cpu.op_class::SimdFloatSqrt                  0      0.00%     58.18% # Class of executed instruction
system.cpu.op_class::MemRead                228115222     31.29%     89.48% # Class of executed instruction
system.cpu.op_class::MemWrite                76706561     10.52%    100.00% # Class of executed instruction
system.cpu.op_class::IprAccess                      0      0.00%    100.00% # Class of executed instruction
system.cpu.op_class::InstPrefetch                   0      0.00%    100.00% # Class of executed instruction
system.cpu.op_class::total                  728937824                       # Class of executed instruction
system.cpu.dcache.tags.replacements           4905391                       # number of replacements
system.cpu.dcache.tags.tagsinuse          1009.707828                       # Cycle average of tags in use
system.cpu.dcache.tags.total_refs           299915378                       # Total number of references to valid blocks.
system.cpu.dcache.tags.sampled_refs           4906415                       # Sample count of references to valid blocks.
system.cpu.dcache.tags.avg_refs             61.127193                       # Average number of references to valid blocks.
system.cpu.dcache.tags.warmup_cycle       21723601500                       # Cycle when the warmup percentage was hit.
system.cpu.dcache.tags.occ_blocks::cpu.data  1009.707828                       # Average occupied blocks per requestor
system.cpu.dcache.tags.occ_percent::cpu.data     0.986043                       # Average percentage of cache occupancy
system.cpu.dcache.tags.occ_percent::total     0.986043                       # Average percentage of cache occupancy
system.cpu.dcache.tags.occ_task_id_blocks::1024         1024                       # Occupied blocks per task id
system.cpu.dcache.tags.age_task_id_blocks_1024::0            3                       # Occupied blocks per task id
system.cpu.dcache.tags.age_task_id_blocks_1024::1           36                       # Occupied blocks per task id
system.cpu.dcache.tags.age_task_id_blocks_1024::2          245                       # Occupied blocks per task id
system.cpu.dcache.tags.age_task_id_blocks_1024::3          740                       # Occupied blocks per task id
system.cpu.dcache.tags.occ_task_id_percent::1024            1                       # Percentage of cache occupancy per task id
system.cpu.dcache.tags.tag_accesses         309728208                       # Number of tag accesses
system.cpu.dcache.tags.data_accesses        309728208                       # Number of data accesses
system.cpu.dcache.ReadReq_hits::cpu.data    224955227                       # number of ReadReq hits
system.cpu.dcache.ReadReq_hits::total       224955227                       # number of ReadReq hits
system.cpu.dcache.WriteReq_hits::cpu.data     74960151                       # number of WriteReq hits
system.cpu.dcache.WriteReq_hits::total       74960151                       # number of WriteReq hits
system.cpu.dcache.demand_hits::cpu.data     299915378                       # number of demand (read+write) hits
system.cpu.dcache.demand_hits::total        299915378                       # number of demand (read+write) hits
system.cpu.dcache.overall_hits::cpu.data    299915378                       # number of overall hits
system.cpu.dcache.overall_hits::total       299915378                       # number of overall hits
system.cpu.dcache.ReadReq_misses::cpu.data      3094469                       # number of ReadReq misses
system.cpu.dcache.ReadReq_misses::total       3094469                       # number of ReadReq misses
system.cpu.dcache.WriteReq_misses::cpu.data      1746410                       # number of WriteReq misses
system.cpu.dcache.WriteReq_misses::total      1746410                       # number of WriteReq misses
system.cpu.dcache.SoftPFReq_misses::cpu.data        65536                       # number of SoftPFReq misses
system.cpu.dcache.SoftPFReq_misses::total        65536                       # number of SoftPFReq misses
system.cpu.dcache.demand_misses::cpu.data      4840879                       # number of demand (read+write) misses
system.cpu.dcache.demand_misses::total        4840879                       # number of demand (read+write) misses
system.cpu.dcache.overall_misses::cpu.data      4906415                       # number of overall misses
system.cpu.dcache.overall_misses::total       4906415                       # number of overall misses
system.cpu.dcache.ReadReq_miss_latency::cpu.data 128200795000                       # number of ReadReq miss cycles
system.cpu.dcache.ReadReq_miss_latency::total 128200795000                       # number of ReadReq miss cycles
system.cpu.dcache.WriteReq_miss_latency::cpu.data 115366403000                       # number of WriteReq miss cycles
system.cpu.dcache.WriteReq_miss_latency::total 115366403000                       # number of WriteReq miss cycles
system.cpu.dcache.demand_miss_latency::cpu.data 243567198000                       # number of demand (read+write) miss cycles
system.cpu.dcache.demand_miss_latency::total 243567198000                       # number of demand (read+write) miss cycles
system.cpu.dcache.overall_miss_latency::cpu.data 243567198000                       # number of overall miss cycles
system.cpu.dcache.overall_miss_latency::total 243567198000                       # number of overall miss cycles
system.cpu.dcache.ReadReq_accesses::cpu.data    228049696                       # number of ReadReq accesses(hits+misses)
system.cpu.dcache.ReadReq_accesses::total    228049696                       # number of ReadReq accesses(hits+misses)
system.cpu.dcache.WriteReq_accesses::cpu.data     76706561                       # number of WriteReq accesses(hits+misses)
system.cpu.dcache.WriteReq_accesses::total     76706561                       # number of WriteReq accesses(hits+misses)
system.cpu.dcache.SoftPFReq_accesses::cpu.data        65536                       # number of SoftPFReq accesses(hits+misses)
system.cpu.dcache.SoftPFReq_accesses::total        65536                       # number of SoftPFReq accesses(hits+misses)
system.cpu.dcache.demand_accesses::cpu.data    304756257                       # number of demand (read+write) accesses
system.cpu.dcache.demand_accesses::total    304756257                       # number of demand (read+write) accesses
system.cpu.dcache.overall_accesses::cpu.data    304821793                       # number of overall (read+write) accesses
system.cpu.dcache.overall_accesses::total    304821793                       # number of overall (read+write) accesses
system.cpu.dcache.ReadReq_miss_rate::cpu.data     0.013569                       # miss rate for ReadReq accesses
system.cpu.dcache.ReadReq_miss_rate::total     0.013569                       # miss rate for ReadReq accesses
system.cpu.dcache.WriteReq_miss_rate::cpu.data     0.022767                       # miss rate for WriteReq accesses
system.cpu.dcache.WriteReq_miss_rate::total     0.022767                       # miss rate for WriteReq accesses
system.cpu.dcache.SoftPFReq_miss_rate::cpu.data            1                       # miss rate for SoftPFReq accesses
system.cpu.dcache.SoftPFReq_miss_rate::total            1                       # miss rate for SoftPFReq accesses
system.cpu.dcache.demand_miss_rate::cpu.data     0.015884                       # miss rate for demand accesses
system.cpu.dcache.demand_miss_rate::total     0.015884                       # miss rate for demand accesses
system.cpu.dcache.overall_miss_rate::cpu.data     0.016096                       # miss rate for overall accesses
system.cpu.dcache.overall_miss_rate::total     0.016096                       # miss rate for overall accesses
system.cpu.dcache.ReadReq_avg_miss_latency::cpu.data 41429.012538                       # average ReadReq miss latency
system.cpu.dcache.ReadReq_avg_miss_latency::total 41429.012538                       # average ReadReq miss latency
system.cpu.dcache.WriteReq_avg_miss_latency::cpu.data 66059.174535                       # average WriteReq miss latency
system.cpu.dcache.WriteReq_avg_miss_latency::total 66059.174535                       # average WriteReq miss latency
system.cpu.dcache.demand_avg_miss_latency::cpu.data 50314.663515                       # average overall miss latency
system.cpu.dcache.demand_avg_miss_latency::total 50314.663515                       # average overall miss latency
system.cpu.dcache.overall_avg_miss_latency::cpu.data 49642.600147                       # average overall miss latency
system.cpu.dcache.overall_avg_miss_latency::total 49642.600147                       # average overall miss latency
system.cpu.dcache.blocked_cycles::no_mshrs      1198128                       # number of cycles access was blocked
system.cpu.dcache.blocked_cycles::no_targets            0                       # number of cycles access was blocked
system.cpu.dcache.blocked::no_mshrs             19448                       # number of cycles access was blocked
system.cpu.dcache.blocked::no_targets               0                       # number of cycles access was blocked
system.cpu.dcache.avg_blocked_cycles::no_mshrs    61.606746                       # average number of cycles each access was blocked
system.cpu.dcache.avg_blocked_cycles::no_targets          nan                       # average number of cycles each access was blocked
system.cpu.dcache.fast_writes                       0                       # number of fast writes performed
system.cpu.dcache.cache_copies                      0                       # number of cache copies performed
system.cpu.dcache.writebacks::writebacks      2500535                       # number of writebacks
system.cpu.dcache.writebacks::total           2500535                       # number of writebacks
system.cpu.dcache.ReadReq_mshr_misses::cpu.data      3094469                       # number of ReadReq MSHR misses
system.cpu.dcache.ReadReq_mshr_misses::total      3094469                       # number of ReadReq MSHR misses
system.cpu.dcache.WriteReq_mshr_misses::cpu.data      1746410                       # number of WriteReq MSHR misses
system.cpu.dcache.WriteReq_mshr_misses::total      1746410                       # number of WriteReq MSHR misses
system.cpu.dcache.SoftPFReq_mshr_misses::cpu.data        65536                       # number of SoftPFReq MSHR misses
system.cpu.dcache.SoftPFReq_mshr_misses::total        65536                       # number of SoftPFReq MSHR misses
system.cpu.dcache.demand_mshr_misses::cpu.data      4840879                       # number of demand (read+write) MSHR misses
system.cpu.dcache.demand_mshr_misses::total      4840879                       # number of demand (read+write) MSHR misses
system.cpu.dcache.overall_mshr_misses::cpu.data      4906415                       # number of overall MSHR misses
system.cpu.dcache.overall_mshr_misses::total      4906415                       # number of overall MSHR misses
system.cpu.dcache.ReadReq_mshr_miss_latency::cpu.data 125106326000                       # number of ReadReq MSHR miss cycles
system.cpu.dcache.ReadReq_mshr_miss_latency::total 125106326000                       # number of ReadReq MSHR miss cycles
system.cpu.dcache.WriteReq_mshr_miss_latency::cpu.data 113619993000                       # number of WriteReq MSHR miss cycles
system.cpu.dcache.WriteReq_mshr_miss_latency::total 113619993000                       # number of WriteReq MSHR miss cycles
system.cpu.dcache.SoftPFReq_mshr_miss_latency::cpu.data   5600479926                       # number of SoftPFReq MSHR miss cycles
system.cpu.dcache.SoftPFReq_mshr_miss_latency::total   5600479926                       # number of SoftPFReq MSHR miss cycles
system.cpu.dcache.demand_mshr_miss_latency::cpu.data 238726319000                       # number of demand (read+write) MSHR miss cycles
system.cpu.dcache.demand_mshr_miss_latency::total 238726319000                       # number of demand (read+write) MSHR miss cycles
system.cpu.dcache.overall_mshr_miss_latency::cpu.data 244326798926                       # number of overall MSHR miss cycles
system.cpu.dcache.overall_mshr_miss_latency::total 244326798926                       # number of overall MSHR miss cycles
system.cpu.dcache.ReadReq_mshr_miss_rate::cpu.data     0.013569                       # mshr miss rate for ReadReq accesses
system.cpu.dcache.ReadReq_mshr_miss_rate::total     0.013569                       # mshr miss rate for ReadReq accesses
system.cpu.dcache.WriteReq_mshr_miss_rate::cpu.data     0.022767                       # mshr miss rate for WriteReq accesses
system.cpu.dcache.WriteReq_mshr_miss_rate::total     0.022767                       # mshr miss rate for WriteReq accesses
system.cpu.dcache.SoftPFReq_mshr_miss_rate::cpu.data            1                       # mshr miss rate for SoftPFReq accesses
system.cpu.dcache.SoftPFReq_mshr_miss_rate::total            1                       # mshr miss rate for SoftPFReq accesses
system.cpu.dcache.demand_mshr_miss_rate::cpu.data     0.015884                       # mshr miss rate for demand accesses
system.cpu.dcache.demand_mshr_miss_rate::total     0.015884                       # mshr miss rate for demand accesses
system.cpu.dcache.overall_mshr_miss_rate::cpu.data     0.016096                       # mshr miss rate for overall accesses
system.cpu.dcache.overall_mshr_miss_rate::total     0.016096                       # mshr miss rate for overall accesses
system.cpu.dcache.ReadReq_avg_mshr_miss_latency::cpu.data 40429.012538                       # average ReadReq mshr miss latency
system.cpu.dcache.ReadReq_avg_mshr_miss_latency::total 40429.012538                       # average ReadReq mshr miss latency
system.cpu.dcache.WriteReq_avg_mshr_miss_latency::cpu.data 65059.174535                       # average WriteReq mshr miss latency
system.cpu.dcache.WriteReq_avg_mshr_miss_latency::total 65059.174535                       # average WriteReq mshr miss latency
system.cpu.dcache.SoftPFReq_avg_mshr_miss_latency::cpu.data 85456.541840                       # average SoftPFReq mshr miss latency
system.cpu.dcache.SoftPFReq_avg_mshr_miss_latency::total 85456.541840                       # average SoftPFReq mshr miss latency
system.cpu.dcache.demand_avg_mshr_miss_latency::cpu.data 49314.663515                       # average overall mshr miss latency
system.cpu.dcache.demand_avg_mshr_miss_latency::total 49314.663515                       # average overall mshr miss latency
system.cpu.dcache.overall_avg_mshr_miss_latency::cpu.data 49797.418059                       # average overall mshr miss latency
system.cpu.dcache.overall_avg_mshr_miss_latency::total 49797.418059                       # average overall mshr miss latency
system.cpu.dcache.no_allocate_misses                0                       # Number of misses that were no-allocate
system.cpu.dtb_walker_cache.tags.replacements            0                       # number of replacements
system.cpu.dtb_walker_cache.tags.tagsinuse            0                       # Cycle average of tags in use
system.cpu.dtb_walker_cache.tags.total_refs            0                       # Total number of references to valid blocks.
system.cpu.dtb_walker_cache.tags.sampled_refs            0                       # Sample count of references to valid blocks.
system.cpu.dtb_walker_cache.tags.avg_refs          nan                       # Average number of references to valid blocks.
system.cpu.dtb_walker_cache.tags.warmup_cycle            0                       # Cycle when the warmup percentage was hit.
system.cpu.dtb_walker_cache.tags.tag_accesses            0                       # Number of tag accesses
system.cpu.dtb_walker_cache.tags.data_accesses            0                       # Number of data accesses
system.cpu.dtb_walker_cache.blocked_cycles::no_mshrs            0                       # number of cycles access was blocked
system.cpu.dtb_walker_cache.blocked_cycles::no_targets            0                       # number of cycles access was blocked
system.cpu.dtb_walker_cache.blocked::no_mshrs            0                       # number of cycles access was blocked
system.cpu.dtb_walker_cache.blocked::no_targets            0                       # number of cycles access was blocked
system.cpu.dtb_walker_cache.avg_blocked_cycles::no_mshrs          nan                       # average number of cycles each access was blocked
system.cpu.dtb_walker_cache.avg_blocked_cycles::no_targets          nan                       # average number of cycles each access was blocked
system.cpu.dtb_walker_cache.fast_writes             0                       # number of fast writes performed
system.cpu.dtb_walker_cache.cache_copies            0                       # number of cache copies performed
system.cpu.dtb_walker_cache.no_allocate_misses            0                       # Number of misses that were no-allocate
system.cpu.icache.tags.replacements                 0                       # number of replacements
system.cpu.icache.tags.tagsinuse           616.831574                       # Cycle average of tags in use
system.cpu.icache.tags.total_refs           687817851                       # Total number of references to valid blocks.
system.cpu.icache.tags.sampled_refs               954                       # Sample count of references to valid blocks.
system.cpu.icache.tags.avg_refs          720983.072327                       # Average number of references to valid blocks.
system.cpu.icache.tags.warmup_cycle                 0                       # Cycle when the warmup percentage was hit.
system.cpu.icache.tags.occ_blocks::cpu.inst   616.831574                       # Average occupied blocks per requestor
system.cpu.icache.tags.occ_percent::cpu.inst     0.301187                       # Average percentage of cache occupancy
system.cpu.icache.tags.occ_percent::total     0.301187                       # Average percentage of cache occupancy
system.cpu.icache.tags.occ_task_id_blocks::1024          954                       # Occupied blocks per task id
system.cpu.icache.tags.age_task_id_blocks_1024::4          954                       # Occupied blocks per task id
system.cpu.icache.tags.occ_task_id_percent::1024     0.465820                       # Percentage of cache occupancy per task id
system.cpu.icache.tags.tag_accesses        5502551394                       # Number of tag accesses
system.cpu.icache.tags.data_accesses       5502551394                       # Number of data accesses
system.cpu.icache.ReadReq_hits::cpu.inst    687817851                       # number of ReadReq hits
system.cpu.icache.ReadReq_hits::total       687817851                       # number of ReadReq hits
system.cpu.icache.demand_hits::cpu.inst     687817851                       # number of demand (read+write) hits
system.cpu.icache.demand_hits::total        687817851                       # number of demand (read+write) hits
system.cpu.icache.overall_hits::cpu.inst    687817851                       # number of overall hits
system.cpu.icache.overall_hits::total       687817851                       # number of overall hits
system.cpu.icache.ReadReq_misses::cpu.inst          954                       # number of ReadReq misses
system.cpu.icache.ReadReq_misses::total           954                       # number of ReadReq misses
system.cpu.icache.demand_misses::cpu.inst          954                       # number of demand (read+write) misses
system.cpu.icache.demand_misses::total            954                       # number of demand (read+write) misses
system.cpu.icache.overall_misses::cpu.inst          954                       # number of overall misses
system.cpu.icache.overall_misses::total           954                       # number of overall misses
system.cpu.icache.ReadReq_miss_latency::cpu.inst     75125500                       # number of ReadReq miss cycles
system.cpu.icache.ReadReq_miss_latency::total     75125500                       # number of ReadReq miss cycles
system.cpu.icache.demand_miss_latency::cpu.inst     75125500                       # number of demand (read+write) miss cycles
system.cpu.icache.demand_miss_latency::total     75125500                       # number of demand (read+write) miss cycles
system.cpu.icache.overall_miss_latency::cpu.inst     75125500                       # number of overall miss cycles
system.cpu.icache.overall_miss_latency::total     75125500                       # number of overall miss cycles
system.cpu.icache.ReadReq_accesses::cpu.inst    687818805                       # number of ReadReq accesses(hits+misses)
system.cpu.icache.ReadReq_accesses::total    687818805                       # number of ReadReq accesses(hits+misses)
system.cpu.icache.demand_accesses::cpu.inst    687818805                       # number of demand (read+write) accesses
system.cpu.icache.demand_accesses::total    687818805                       # number of demand (read+write) accesses
system.cpu.icache.overall_accesses::cpu.inst    687818805                       # number of overall (read+write) accesses
system.cpu.icache.overall_accesses::total    687818805                       # number of overall (read+write) accesses
system.cpu.icache.ReadReq_miss_rate::cpu.inst     0.000001                       # miss rate for ReadReq accesses
system.cpu.icache.ReadReq_miss_rate::total     0.000001                       # miss rate for ReadReq accesses
system.cpu.icache.demand_miss_rate::cpu.inst     0.000001                       # miss rate for demand accesses
system.cpu.icache.demand_miss_rate::total     0.000001                       # miss rate for demand accesses
system.cpu.icache.overall_miss_rate::cpu.inst     0.000001                       # miss rate for overall accesses
system.cpu.icache.overall_miss_rate::total     0.000001                       # miss rate for overall accesses
system.cpu.icache.ReadReq_avg_miss_latency::cpu.inst 78747.903564                       # average ReadReq miss latency
system.cpu.icache.ReadReq_avg_miss_latency::total 78747.903564                       # average ReadReq miss latency
system.cpu.icache.demand_avg_miss_latency::cpu.inst 78747.903564                       # average overall miss latency
system.cpu.icache.demand_avg_miss_latency::total 78747.903564                       # average overall miss latency
system.cpu.icache.overall_avg_miss_latency::cpu.inst 78747.903564                       # average overall miss latency
system.cpu.icache.overall_avg_miss_latency::total 78747.903564                       # average overall miss latency
system.cpu.icache.blocked_cycles::no_mshrs            0                       # number of cycles access was blocked
system.cpu.icache.blocked_cycles::no_targets            0                       # number of cycles access was blocked
system.cpu.icache.blocked::no_mshrs                 0                       # number of cycles access was blocked
system.cpu.icache.blocked::no_targets               0                       # number of cycles access was blocked
system.cpu.icache.avg_blocked_cycles::no_mshrs          nan                       # average number of cycles each access was blocked
system.cpu.icache.avg_blocked_cycles::no_targets          nan                       # average number of cycles each access was blocked
system.cpu.icache.fast_writes                       0                       # number of fast writes performed
system.cpu.icache.cache_copies                      0                       # number of cache copies performed
system.cpu.icache.ReadReq_mshr_misses::cpu.inst          954                       # number of ReadReq MSHR misses
system.cpu.icache.ReadReq_mshr_misses::total          954                       # number of ReadReq MSHR misses
system.cpu.icache.demand_mshr_misses::cpu.inst          954                       # number of demand (read+write) MSHR misses
system.cpu.icache.demand_mshr_misses::total          954                       # number of demand (read+write) MSHR misses
system.cpu.icache.overall_mshr_misses::cpu.inst          954                       # number of overall MSHR misses
system.cpu.icache.overall_mshr_misses::total          954                       # number of overall MSHR misses
system.cpu.icache.ReadReq_mshr_miss_latency::cpu.inst     74171500                       # number of ReadReq MSHR miss cycles
system.cpu.icache.ReadReq_mshr_miss_latency::total     74171500                       # number of ReadReq MSHR miss cycles
system.cpu.icache.demand_mshr_miss_latency::cpu.inst     74171500                       # number of demand (read+write) MSHR miss cycles
system.cpu.icache.demand_mshr_miss_latency::total     74171500                       # number of demand (read+write) MSHR miss cycles
system.cpu.icache.overall_mshr_miss_latency::cpu.inst     74171500                       # number of overall MSHR miss cycles
system.cpu.icache.overall_mshr_miss_latency::total     74171500                       # number of overall MSHR miss cycles
system.cpu.icache.ReadReq_mshr_miss_rate::cpu.inst     0.000001                       # mshr miss rate for ReadReq accesses
system.cpu.icache.ReadReq_mshr_miss_rate::total     0.000001                       # mshr miss rate for ReadReq accesses
system.cpu.icache.demand_mshr_miss_rate::cpu.inst     0.000001                       # mshr miss rate for demand accesses
system.cpu.icache.demand_mshr_miss_rate::total     0.000001                       # mshr miss rate for demand accesses
system.cpu.icache.overall_mshr_miss_rate::cpu.inst     0.000001                       # mshr miss rate for overall accesses
system.cpu.icache.overall_mshr_miss_rate::total     0.000001                       # mshr miss rate for overall accesses
system.cpu.icache.ReadReq_avg_mshr_miss_latency::cpu.inst 77747.903564                       # average ReadReq mshr miss latency
system.cpu.icache.ReadReq_avg_mshr_miss_latency::total 77747.903564                       # average ReadReq mshr miss latency
system.cpu.icache.demand_avg_mshr_miss_latency::cpu.inst 77747.903564                       # average overall mshr miss latency
system.cpu.icache.demand_avg_mshr_miss_latency::total 77747.903564                       # average overall mshr miss latency
system.cpu.icache.overall_avg_mshr_miss_latency::cpu.inst 77747.903564                       # average overall mshr miss latency
system.cpu.icache.overall_avg_mshr_miss_latency::total 77747.903564                       # average overall mshr miss latency
system.cpu.icache.no_allocate_misses                0                       # Number of misses that were no-allocate
system.cpu.itb_walker_cache.tags.replacements            0                       # number of replacements
system.cpu.itb_walker_cache.tags.tagsinuse            0                       # Cycle average of tags in use
system.cpu.itb_walker_cache.tags.total_refs            0                       # Total number of references to valid blocks.
system.cpu.itb_walker_cache.tags.sampled_refs            0                       # Sample count of references to valid blocks.
system.cpu.itb_walker_cache.tags.avg_refs          nan                       # Average number of references to valid blocks.
system.cpu.itb_walker_cache.tags.warmup_cycle            0                       # Cycle when the warmup percentage was hit.
system.cpu.itb_walker_cache.tags.tag_accesses            0                       # Number of tag accesses
system.cpu.itb_walker_cache.tags.data_accesses            0                       # Number of data accesses
system.cpu.itb_walker_cache.blocked_cycles::no_mshrs            0                       # number of cycles access was blocked
system.cpu.itb_walker_cache.blocked_cycles::no_targets            0                       # number of cycles access was blocked
system.cpu.itb_walker_cache.blocked::no_mshrs            0                       # number of cycles access was blocked
system.cpu.itb_walker_cache.blocked::no_targets            0                       # number of cycles access was blocked
system.cpu.itb_walker_cache.avg_blocked_cycles::no_mshrs          nan                       # average number of cycles each access was blocked
system.cpu.itb_walker_cache.avg_blocked_cycles::no_targets          nan                       # average number of cycles each access was blocked
system.cpu.itb_walker_cache.fast_writes             0                       # number of fast writes performed
system.cpu.itb_walker_cache.cache_copies            0                       # number of cache copies performed
system.cpu.itb_walker_cache.no_allocate_misses            0                       # Number of misses that were no-allocate
system.l2.tags.replacements                   2755124                       # number of replacements
system.l2.tags.tagsinuse                 15777.064398                       # Cycle average of tags in use
system.l2.tags.total_refs                     5203225                       # Total number of references to valid blocks.
system.l2.tags.sampled_refs                   2771466                       # Sample count of references to valid blocks.
system.l2.tags.avg_refs                      1.877427                       # Average number of references to valid blocks.
system.l2.tags.warmup_cycle               45316797500                       # Cycle when the warmup percentage was hit.
system.l2.tags.occ_blocks::writebacks     7709.377799                       # Average occupied blocks per requestor
system.l2.tags.occ_blocks::cpu.inst          7.363893                       # Average occupied blocks per requestor
system.l2.tags.occ_blocks::cpu.data       8060.322707                       # Average occupied blocks per requestor
system.l2.tags.occ_percent::writebacks       0.470543                       # Average percentage of cache occupancy
system.l2.tags.occ_percent::cpu.inst         0.000449                       # Average percentage of cache occupancy
system.l2.tags.occ_percent::cpu.data         0.491963                       # Average percentage of cache occupancy
system.l2.tags.occ_percent::total            0.962956                       # Average percentage of cache occupancy
system.l2.tags.occ_task_id_blocks::1024         16342                       # Occupied blocks per task id
system.l2.tags.age_task_id_blocks_1024::2            6                       # Occupied blocks per task id
system.l2.tags.age_task_id_blocks_1024::3          101                       # Occupied blocks per task id
system.l2.tags.age_task_id_blocks_1024::4        16235                       # Occupied blocks per task id
system.l2.tags.occ_task_id_percent::1024     0.997437                       # Percentage of cache occupancy per task id
system.l2.tags.tag_accesses                  14330635                       # Number of tag accesses
system.l2.tags.data_accesses                 14330635                       # Number of data accesses
system.l2.WritebackDirty_hits::writebacks      2500535                       # number of WritebackDirty hits
system.l2.WritebackDirty_hits::total          2500535                       # number of WritebackDirty hits
system.l2.ReadExReq_hits::cpu.data             405528                       # number of ReadExReq hits
system.l2.ReadExReq_hits::total                405528                       # number of ReadExReq hits
system.l2.ReadCleanReq_hits::cpu.inst               1                       # number of ReadCleanReq hits
system.l2.ReadCleanReq_hits::total                  1                       # number of ReadCleanReq hits
system.l2.ReadSharedReq_hits::cpu.data        1748354                       # number of ReadSharedReq hits
system.l2.ReadSharedReq_hits::total           1748354                       # number of ReadSharedReq hits
system.l2.demand_hits::cpu.inst                     1                       # number of demand (read+write) hits
system.l2.demand_hits::cpu.data               2153882                       # number of demand (read+write) hits
system.l2.demand_hits::total                  2153883                       # number of demand (read+write) hits
system.l2.overall_hits::cpu.inst                    1                       # number of overall hits
system.l2.overall_hits::cpu.data              2153882                       # number of overall hits
system.l2.overall_hits::total                 2153883                       # number of overall hits
system.l2.ReadExReq_misses::cpu.data          1340882                       # number of ReadExReq misses
system.l2.ReadExReq_misses::total             1340882                       # number of ReadExReq misses
system.l2.ReadCleanReq_misses::cpu.inst           953                       # number of ReadCleanReq misses
system.l2.ReadCleanReq_misses::total              953                       # number of ReadCleanReq misses
system.l2.ReadSharedReq_misses::cpu.data      1411651                       # number of ReadSharedReq misses
system.l2.ReadSharedReq_misses::total         1411651                       # number of ReadSharedReq misses
system.l2.demand_misses::cpu.inst                 953                       # number of demand (read+write) misses
system.l2.demand_misses::cpu.data             2752533                       # number of demand (read+write) misses
system.l2.demand_misses::total                2753486                       # number of demand (read+write) misses
system.l2.overall_misses::cpu.inst                953                       # number of overall misses
system.l2.overall_misses::cpu.data            2752533                       # number of overall misses
system.l2.overall_misses::total               2753486                       # number of overall misses
system.l2.ReadExReq_miss_latency::cpu.data 106742181000                       # number of ReadExReq miss cycles
system.l2.ReadExReq_miss_latency::total  106742181000                       # number of ReadExReq miss cycles
system.l2.ReadCleanReq_miss_latency::cpu.inst     72729000                       # number of ReadCleanReq miss cycles
system.l2.ReadCleanReq_miss_latency::total     72729000                       # number of ReadCleanReq miss cycles
system.l2.ReadSharedReq_miss_latency::cpu.data 107601638000                       # number of ReadSharedReq miss cycles
system.l2.ReadSharedReq_miss_latency::total 107601638000                       # number of ReadSharedReq miss cycles
system.l2.demand_miss_latency::cpu.inst      72729000                       # number of demand (read+write) miss cycles
system.l2.demand_miss_latency::cpu.data  214343819000                       # number of demand (read+write) miss cycles
system.l2.demand_miss_latency::total     214416548000                       # number of demand (read+write) miss cycles
system.l2.overall_miss_latency::cpu.inst     72729000                       # number of overall miss cycles
system.l2.overall_miss_latency::cpu.data 214343819000                       # number of overall miss cycles
system.l2.overall_miss_latency::total    214416548000                       # number of overall miss cycles
system.l2.WritebackDirty_accesses::writebacks      2500535                       # number of WritebackDirty accesses(hits+misses)
system.l2.WritebackDirty_accesses::total      2500535                       # number of WritebackDirty accesses(hits+misses)
system.l2.ReadExReq_accesses::cpu.data        1746410                       # number of ReadExReq accesses(hits+misses)
system.l2.ReadExReq_accesses::total           1746410                       # number of ReadExReq accesses(hits+misses)
system.l2.ReadCleanReq_accesses::cpu.inst          954                       # number of ReadCleanReq accesses(hits+misses)
system.l2.ReadCleanReq_accesses::total            954                       # number of ReadCleanReq accesses(hits+misses)
system.l2.ReadSharedReq_accesses::cpu.data      3160005                       # number of ReadSharedReq accesses(hits+misses)
system.l2.ReadSharedReq_accesses::total       3160005                       # number of ReadSharedReq accesses(hits+misses)
system.l2.demand_accesses::cpu.inst               954                       # number of demand (read+write) accesses
system.l2.demand_accesses::cpu.data           4906415                       # number of demand (read+write) accesses
system.l2.demand_accesses::total              4907369                       # number of demand (read+write) accesses
system.l2.overall_accesses::cpu.inst              954                       # number of overall (read+write) accesses
system.l2.overall_accesses::cpu.data          4906415                       # number of overall (read+write) accesses
system.l2.overall_accesses::total             4907369                       # number of overall (read+write) accesses
system.l2.ReadExReq_miss_rate::cpu.data      0.767793                       # miss rate for ReadExReq accesses
system.l2.ReadExReq_miss_rate::total         0.767793                       # miss rate for ReadExReq accesses
system.l2.ReadCleanReq_miss_rate::cpu.inst     0.998952                       # miss rate for ReadCleanReq accesses
system.l2.ReadCleanReq_miss_rate::total      0.998952                       # miss rate for ReadCleanReq accesses
system.l2.ReadSharedReq_miss_rate::cpu.data     0.446724                       # miss rate for ReadSharedReq accesses
system.l2.ReadSharedReq_miss_rate::total     0.446724                       # miss rate for ReadSharedReq accesses
system.l2.demand_miss_rate::cpu.inst         0.998952                       # miss rate for demand accesses
system.l2.demand_miss_rate::cpu.data         0.561007                       # miss rate for demand accesses
system.l2.demand_miss_rate::total            0.561092                       # miss rate for demand accesses
system.l2.overall_miss_rate::cpu.inst        0.998952                       # miss rate for overall accesses
system.l2.overall_miss_rate::cpu.data        0.561007                       # miss rate for overall accesses
system.l2.overall_miss_rate::total           0.561092                       # miss rate for overall accesses
system.l2.ReadExReq_avg_miss_latency::cpu.data 79605.946683                       # average ReadExReq miss latency
system.l2.ReadExReq_avg_miss_latency::total 79605.946683                       # average ReadExReq miss latency
system.l2.ReadCleanReq_avg_miss_latency::cpu.inst 76315.844701                       # average ReadCleanReq miss latency
system.l2.ReadCleanReq_avg_miss_latency::total 76315.844701                       # average ReadCleanReq miss latency
system.l2.ReadSharedReq_avg_miss_latency::cpu.data 76223.966122                       # average ReadSharedReq miss latency
system.l2.ReadSharedReq_avg_miss_latency::total 76223.966122                       # average ReadSharedReq miss latency
system.l2.demand_avg_miss_latency::cpu.inst 76315.844701                       # average overall miss latency
system.l2.demand_avg_miss_latency::cpu.data 77871.480197                       # average overall miss latency
system.l2.demand_avg_miss_latency::total 77870.941781                       # average overall miss latency
system.l2.overall_avg_miss_latency::cpu.inst 76315.844701                       # average overall miss latency
system.l2.overall_avg_miss_latency::cpu.data 77871.480197                       # average overall miss latency
system.l2.overall_avg_miss_latency::total 77870.941781                       # average overall miss latency
system.l2.blocked_cycles::no_mshrs                  0                       # number of cycles access was blocked
system.l2.blocked_cycles::no_targets                0                       # number of cycles access was blocked
system.l2.blocked::no_mshrs                         0                       # number of cycles access was blocked
system.l2.blocked::no_targets                       0                       # number of cycles access was blocked
system.l2.avg_blocked_cycles::no_mshrs            nan                       # average number of cycles each access was blocked
system.l2.avg_blocked_cycles::no_targets          nan                       # average number of cycles each access was blocked
system.l2.fast_writes                               0                       # number of fast writes performed
system.l2.cache_copies                              0                       # number of cache copies performed
system.l2.writebacks::writebacks              1449898                       # number of writebacks
system.l2.writebacks::total                   1449898                       # number of writebacks
system.l2.CleanEvict_mshr_misses::writebacks        89860                       # number of CleanEvict MSHR misses
system.l2.CleanEvict_mshr_misses::total         89860                       # number of CleanEvict MSHR misses
system.l2.ReadExReq_mshr_misses::cpu.data      1340882                       # number of ReadExReq MSHR misses
system.l2.ReadExReq_mshr_misses::total        1340882                       # number of ReadExReq MSHR misses
system.l2.ReadCleanReq_mshr_misses::cpu.inst          953                       # number of ReadCleanReq MSHR misses
system.l2.ReadCleanReq_mshr_misses::total          953                       # number of ReadCleanReq MSHR misses
system.l2.ReadSharedReq_mshr_misses::cpu.data      1411651                       # number of ReadSharedReq MSHR misses
system.l2.ReadSharedReq_mshr_misses::total      1411651                       # number of ReadSharedReq MSHR misses
system.l2.demand_mshr_misses::cpu.inst            953                       # number of demand (read+write) MSHR misses
system.l2.demand_mshr_misses::cpu.data        2752533                       # number of demand (read+write) MSHR misses
system.l2.demand_mshr_misses::total           2753486                       # number of demand (read+write) MSHR misses
system.l2.overall_mshr_misses::cpu.inst           953                       # number of overall MSHR misses
system.l2.overall_mshr_misses::cpu.data       2752533                       # number of overall MSHR misses
system.l2.overall_mshr_misses::total          2753486                       # number of overall MSHR misses
system.l2.ReadExReq_mshr_miss_latency::cpu.data  93333361000                       # number of ReadExReq MSHR miss cycles
system.l2.ReadExReq_mshr_miss_latency::total  93333361000                       # number of ReadExReq MSHR miss cycles
system.l2.ReadCleanReq_mshr_miss_latency::cpu.inst     63199000                       # number of ReadCleanReq MSHR miss cycles
system.l2.ReadCleanReq_mshr_miss_latency::total     63199000                       # number of ReadCleanReq MSHR miss cycles
system.l2.ReadSharedReq_mshr_miss_latency::cpu.data  93485128000                       # number of ReadSharedReq MSHR miss cycles
system.l2.ReadSharedReq_mshr_miss_latency::total  93485128000                       # number of ReadSharedReq MSHR miss cycles
system.l2.demand_mshr_miss_latency::cpu.inst     63199000                       # number of demand (read+write) MSHR miss cycles
system.l2.demand_mshr_miss_latency::cpu.data 186818489000                       # number of demand (read+write) MSHR miss cycles
system.l2.demand_mshr_miss_latency::total 186881688000                       # number of demand (read+write) MSHR miss cycles
system.l2.overall_mshr_miss_latency::cpu.inst     63199000                       # number of overall MSHR miss cycles
system.l2.overall_mshr_miss_latency::cpu.data 186818489000                       # number of overall MSHR miss cycles
system.l2.overall_mshr_miss_latency::total 186881688000                       # number of overall MSHR miss cycles
system.l2.CleanEvict_mshr_miss_rate::writebacks          inf                       # mshr miss rate for CleanEvict accesses
system.l2.CleanEvict_mshr_miss_rate::total          inf                       # mshr miss rate for CleanEvict accesses
system.l2.ReadExReq_mshr_miss_rate::cpu.data     0.767793                       # mshr miss rate for ReadExReq accesses
system.l2.ReadExReq_mshr_miss_rate::total     0.767793                       # mshr miss rate for ReadExReq accesses
system.l2.ReadCleanReq_mshr_miss_rate::cpu.inst     0.998952                       # mshr miss rate for ReadCleanReq accesses
system.l2.ReadCleanReq_mshr_miss_rate::total     0.998952                       # mshr miss rate for ReadCleanReq accesses
system.l2.ReadSharedReq_mshr_miss_rate::cpu.data     0.446724                       # mshr miss rate for ReadSharedReq accesses
system.l2.ReadSharedReq_mshr_miss_rate::total     0.446724                       # mshr miss rate for ReadSharedReq accesses
system.l2.demand_mshr_miss_rate::cpu.inst     0.998952                       # mshr miss rate for demand accesses
system.l2.demand_mshr_miss_rate::cpu.data     0.561007                       # mshr miss rate for demand accesses
system.l2.demand_mshr_miss_rate::total       0.561092                       # mshr miss rate for demand accesses
system.l2.overall_mshr_miss_rate::cpu.inst     0.998952                       # mshr miss rate for overall accesses
system.l2.overall_mshr_miss_rate::cpu.data     0.561007                       # mshr miss rate for overall accesses
system.l2.overall_mshr_miss_rate::total      0.561092                       # mshr miss rate for overall accesses
system.l2.ReadExReq_avg_mshr_miss_latency::cpu.data 69605.946683                       # average ReadExReq mshr miss latency
system.l2.ReadExReq_avg_mshr_miss_latency::total 69605.946683                       # average ReadExReq mshr miss latency
system.l2.ReadCleanReq_avg_mshr_miss_latency::cpu.inst 66315.844701                       # average ReadCleanReq mshr miss latency
system.l2.ReadCleanReq_avg_mshr_miss_latency::total 66315.844701                       # average ReadCleanReq mshr miss latency
system.l2.ReadSharedReq_avg_mshr_miss_latency::cpu.data 66223.966122                       # average ReadSharedReq mshr miss latency
system.l2.ReadSharedReq_avg_mshr_miss_latency::total 66223.966122                       # average ReadSharedReq mshr miss latency
system.l2.demand_avg_mshr_miss_latency::cpu.inst 66315.844701                       # average overall mshr miss latency
system.l2.demand_avg_mshr_miss_latency::cpu.data 67871.480197                       # average overall mshr miss latency
system.l2.demand_avg_mshr_miss_latency::total 67870.941781                       # average overall mshr miss latency
system.l2.overall_avg_mshr_miss_latency::cpu.inst 66315.844701                       # average overall mshr miss latency
system.l2.overall_avg_mshr_miss_latency::cpu.data 67871.480197                       # average overall mshr miss latency
system.l2.overall_avg_mshr_miss_latency::total 67870.941781                       # average overall mshr miss latency
system.l2.no_allocate_misses                        0                       # Number of misses that were no-allocate
system.membus.trans_dist::ReadResp            1412604                       # Transaction distribution
system.membus.trans_dist::WritebackDirty      1449898                       # Transaction distribution
system.membus.trans_dist::CleanEvict          1286259                       # Transaction distribution
system.membus.trans_dist::ReadExReq           1340882                       # Transaction distribution
system.membus.trans_dist::ReadExResp          1340882                       # Transaction distribution
system.membus.trans_dist::ReadSharedReq       1412604                       # Transaction distribution
system.membus.pkt_count_system.l2.mem_side::system.mem_ctrls.port      8243129                       # Packet count per connected master and slave (bytes)
system.membus.pkt_count_system.l2.mem_side::total      8243129                       # Packet count per connected master and slave (bytes)
system.membus.pkt_count::total                8243129                       # Packet count per connected master and slave (bytes)
system.membus.pkt_size_system.l2.mem_side::system.mem_ctrls.port    269016576                       # Cumulative packet size per connected master and slave (bytes)
system.membus.pkt_size_system.l2.mem_side::total    269016576                       # Cumulative packet size per connected master and slave (bytes)
system.membus.pkt_size::total               269016576                       # Cumulative packet size per connected master and slave (bytes)
system.membus.snoops                                0                       # Total snoops (count)
system.membus.snoop_fanout::samples           5489643                       # Request fanout histogram
system.membus.snoop_fanout::mean                    0                       # Request fanout histogram
system.membus.snoop_fanout::stdev                   0                       # Request fanout histogram
system.membus.snoop_fanout::underflows              0      0.00%      0.00% # Request fanout histogram
system.membus.snoop_fanout::0                 5489643    100.00%    100.00% # Request fanout histogram
system.membus.snoop_fanout::1                       0      0.00%    100.00% # Request fanout histogram
system.membus.snoop_fanout::overflows               0      0.00%    100.00% # Request fanout histogram
system.membus.snoop_fanout::min_value               0                       # Request fanout histogram
system.membus.snoop_fanout::max_value               0                       # Request fanout histogram
system.membus.snoop_fanout::total             5489643                       # Request fanout histogram
system.membus.reqLayer2.occupancy         11320685000                       # Layer occupancy (ticks)
system.membus.reqLayer2.utilization               0.9                       # Layer utilization (%)
system.membus.respLayer1.occupancy        14614190250                       # Layer occupancy (ticks)
system.membus.respLayer1.utilization              1.2                       # Layer utilization (%)
system.tol2bus.snoop_filter.tot_requests      9812760                       # Total number of requests made to the snoop filter.
system.tol2bus.snoop_filter.hit_single_requests      4905391                       # Number of requests hitting in the snoop filter with a single holder of the requested data.
system.tol2bus.snoop_filter.hit_multi_requests            1                       # Number of requests hitting in the snoop filter with multiple (>1) holders of the requested data.
system.tol2bus.snoop_filter.tot_snoops         108827                       # Total number of snoops made to the snoop filter.
system.tol2bus.snoop_filter.hit_single_snoops       108827                       # Number of snoops hitting in the snoop filter with a single holder of the requested data.
system.tol2bus.snoop_filter.hit_multi_snoops            0                       # Number of snoops hitting in the snoop filter with multiple (>1) holders of the requested data.
system.tol2bus.trans_dist::ReadResp           3160959                       # Transaction distribution
system.tol2bus.trans_dist::WritebackDirty      3950433                       # Transaction distribution
system.tol2bus.trans_dist::CleanEvict         3710081                       # Transaction distribution
system.tol2bus.trans_dist::ReadExReq          1746410                       # Transaction distribution
system.tol2bus.trans_dist::ReadExResp         1746410                       # Transaction distribution
system.tol2bus.trans_dist::ReadCleanReq           954                       # Transaction distribution
system.tol2bus.trans_dist::ReadSharedReq      3160005                       # Transaction distribution
system.tol2bus.pkt_count_system.cpu.icache.mem_side::system.l2.cpu_side         1908                       # Packet count per connected master and slave (bytes)
system.tol2bus.pkt_count_system.cpu.dcache.mem_side::system.l2.cpu_side     14718220                       # Packet count per connected master and slave (bytes)
system.tol2bus.pkt_count::total              14720128                       # Packet count per connected master and slave (bytes)
system.tol2bus.pkt_size_system.cpu.icache.mem_side::system.l2.cpu_side        61056                       # Cumulative packet size per connected master and slave (bytes)
system.tol2bus.pkt_size_system.cpu.dcache.mem_side::system.l2.cpu_side    474044800                       # Cumulative packet size per connected master and slave (bytes)
system.tol2bus.pkt_size::total              474105856                       # Cumulative packet size per connected master and slave (bytes)
system.tol2bus.snoops                         2755124                       # Total snoops (count)
system.tol2bus.snoop_fanout::samples          7662493                       # Request fanout histogram
system.tol2bus.snoop_fanout::mean            0.014203                       # Request fanout histogram
system.tol2bus.snoop_fanout::stdev           0.118326                       # Request fanout histogram
system.tol2bus.snoop_fanout::underflows             0      0.00%      0.00% # Request fanout histogram
system.tol2bus.snoop_fanout::0                7553665     98.58%     98.58% # Request fanout histogram
system.tol2bus.snoop_fanout::1                 108828      1.42%    100.00% # Request fanout histogram
system.tol2bus.snoop_fanout::2                      0      0.00%    100.00% # Request fanout histogram
system.tol2bus.snoop_fanout::3                      0      0.00%    100.00% # Request fanout histogram
system.tol2bus.snoop_fanout::4                      0      0.00%    100.00% # Request fanout histogram
system.tol2bus.snoop_fanout::overflows              0      0.00%    100.00% # Request fanout histogram
system.tol2bus.snoop_fanout::min_value              0                       # Request fanout histogram
system.tol2bus.snoop_fanout::max_value              1                       # Request fanout histogram
system.tol2bus.snoop_fanout::total            7662493                       # Request fanout histogram
system.tol2bus.reqLayer0.occupancy         7406915000                       # Layer occupancy (ticks)
system.tol2bus.reqLayer0.utilization              0.6                       # Layer utilization (%)
system.tol2bus.respLayer0.occupancy           1431000                       # Layer occupancy (ticks)
system.tol2bus.respLayer0.utilization             0.0                       # Layer utilization (%)
system.tol2bus.respLayer1.occupancy        7359622500                       # Layer occupancy (ticks)
system.tol2bus.respLayer1.utilization             0.6                       # Layer utilization (%)

---------- End Simulation Statistics   ----------
