
---------- Begin Simulation Statistics ---------
sim_seconds                                  1.238770                       # Number of seconds simulated
sim_ticks                                1238769902500                       # Number of ticks simulated
final_tick                               1238769902500                       # Number of ticks from beginning of simulation (restored from checkpoints and never reset)
sim_freq                                 1000000000000                       # Frequency of simulated ticks
host_inst_rate                                 657480                       # Simulator instruction rate (inst/s)
host_op_rate                                   958523                       # Simulator op (including micro ops) rate (op/s)
host_tick_rate                             1628931722                       # Simulator tick rate (ticks/s)
host_mem_usage                                 832956                       # Number of bytes of host memory used
host_seconds                                   760.48                       # Real time elapsed on the host
sim_insts                                   500000001                       # Number of instructions simulated
sim_ops                                     728937824                       # Number of ops (including micro ops) simulated
system.voltage_domain.voltage                       1                       # Voltage in Volts
system.clk_domain.clock                          1000                       # Clock period in ticks
system.mem_ctrls.bytes_read::cpu.inst           62208                       # Number of bytes read from this memory
system.mem_ctrls.bytes_read::cpu.data       176202560                       # Number of bytes read from this memory
system.mem_ctrls.bytes_read::total          176264768                       # Number of bytes read from this memory
system.mem_ctrls.bytes_inst_read::cpu.inst        62208                       # Number of instructions bytes read from this memory
system.mem_ctrls.bytes_inst_read::total         62208                       # Number of instructions bytes read from this memory
system.mem_ctrls.bytes_written::writebacks     93039872                       # Number of bytes written to this memory
system.mem_ctrls.bytes_written::total        93039872                       # Number of bytes written to this memory
system.mem_ctrls.num_reads::cpu.inst              972                       # Number of read requests responded to by this memory
system.mem_ctrls.num_reads::cpu.data          2753165                       # Number of read requests responded to by this memory
system.mem_ctrls.num_reads::total             2754137                       # Number of read requests responded to by this memory
system.mem_ctrls.num_writes::writebacks       1453748                       # Number of write requests responded to by this memory
system.mem_ctrls.num_writes::total            1453748                       # Number of write requests responded to by this memory
system.mem_ctrls.bw_read::cpu.inst              50218                       # Total read bandwidth from this memory (bytes/s)
system.mem_ctrls.bw_read::cpu.data          142239943                       # Total read bandwidth from this memory (bytes/s)
system.mem_ctrls.bw_read::total             142290160                       # Total read bandwidth from this memory (bytes/s)
system.mem_ctrls.bw_inst_read::cpu.inst         50218                       # Instruction read bandwidth from this memory (bytes/s)
system.mem_ctrls.bw_inst_read::total            50218                       # Instruction read bandwidth from this memory (bytes/s)
system.mem_ctrls.bw_write::writebacks        75106662                       # Write bandwidth from this memory (bytes/s)
system.mem_ctrls.bw_write::total             75106662                       # Write bandwidth from this memory (bytes/s)
system.mem_ctrls.bw_total::writebacks        75106662                       # Total bandwidth to/from this memory (bytes/s)
system.mem_ctrls.bw_total::cpu.inst             50218                       # Total bandwidth to/from this memory (bytes/s)
system.mem_ctrls.bw_total::cpu.data         142239943                       # Total bandwidth to/from this memory (bytes/s)
system.mem_ctrls.bw_total::total            217396822                       # Total bandwidth to/from this memory (bytes/s)
system.mem_ctrls.readReqs                     2754137                       # Number of read requests accepted
system.mem_ctrls.writeReqs                    1453748                       # Number of write requests accepted
system.mem_ctrls.readBursts                   2754137                       # Number of DRAM read bursts, including those serviced by the write queue
system.mem_ctrls.writeBursts                  1453748                       # Number of DRAM write bursts, including those merged in the write queue
system.mem_ctrls.bytesReadDRAM              176036672                       # Total number of bytes read from DRAM
system.mem_ctrls.bytesReadWrQ                  228096                       # Total number of bytes read from write queue
system.mem_ctrls.bytesWritten                93007232                       # Total number of bytes written to DRAM
system.mem_ctrls.bytesReadSys               176264768                       # Total read bytes from the system interface side
system.mem_ctrls.bytesWrittenSys             93039872                       # Total written bytes from the system interface side
system.mem_ctrls.servicedByWrQ                   3564                       # Number of DRAM read bursts serviced by the write queue
system.mem_ctrls.mergedWrBursts                   495                       # Number of DRAM write bursts merged with an existing one
system.mem_ctrls.neitherReadNorWriteReqs      1283289                       # Number of requests that are neither read nor write
system.mem_ctrls.perBankRdBursts::0            173662                       # Per bank write bursts
system.mem_ctrls.perBankRdBursts::1            172041                       # Per bank write bursts
system.mem_ctrls.perBankRdBursts::2            173079                       # Per bank write bursts
system.mem_ctrls.perBankRdBursts::3            169492                       # Per bank write bursts
system.mem_ctrls.perBankRdBursts::4            169652                       # Per bank write bursts
system.mem_ctrls.perBankRdBursts::5            168953                       # Per bank write bursts
system.mem_ctrls.perBankRdBursts::6            171130                       # Per bank write bursts
system.mem_ctrls.perBankRdBursts::7            170184                       # Per bank write bursts
system.mem_ctrls.perBankRdBursts::8            167903                       # Per bank write bursts
system.mem_ctrls.perBankRdBursts::9            168082                       # Per bank write bursts
system.mem_ctrls.perBankRdBursts::10           171692                       # Per bank write bursts
system.mem_ctrls.perBankRdBursts::11           172004                       # Per bank write bursts
system.mem_ctrls.perBankRdBursts::12           175167                       # Per bank write bursts
system.mem_ctrls.perBankRdBursts::13           173995                       # Per bank write bursts
system.mem_ctrls.perBankRdBursts::14           174460                       # Per bank write bursts
system.mem_ctrls.perBankRdBursts::15           179077                       # Per bank write bursts
system.mem_ctrls.perBankWrBursts::0             91686                       # Per bank write bursts
system.mem_ctrls.perBankWrBursts::1             91088                       # Per bank write bursts
system.mem_ctrls.perBankWrBursts::2             92571                       # Per bank write bursts
system.mem_ctrls.perBankWrBursts::3             90162                       # Per bank write bursts
system.mem_ctrls.perBankWrBursts::4             89662                       # Per bank write bursts
system.mem_ctrls.perBankWrBursts::5             88951                       # Per bank write bursts
system.mem_ctrls.perBankWrBursts::6             90538                       # Per bank write bursts
system.mem_ctrls.perBankWrBursts::7             90405                       # Per bank write bursts
system.mem_ctrls.perBankWrBursts::8             89330                       # Per bank write bursts
system.mem_ctrls.perBankWrBursts::9             89391                       # Per bank write bursts
system.mem_ctrls.perBankWrBursts::10            90763                       # Per bank write bursts
system.mem_ctrls.perBankWrBursts::11            90444                       # Per bank write bursts
system.mem_ctrls.perBankWrBursts::12            91197                       # Per bank write bursts
system.mem_ctrls.perBankWrBursts::13            91365                       # Per bank write bursts
system.mem_ctrls.perBankWrBursts::14            91892                       # Per bank write bursts
system.mem_ctrls.perBankWrBursts::15            93793                       # Per bank write bursts
system.mem_ctrls.numRdRetry                         0                       # Number of times read queue was full causing retry
system.mem_ctrls.numWrRetry                         0                       # Number of times write queue was full causing retry
system.mem_ctrls.totGap                  1234437729500                       # Total gap between requests
system.mem_ctrls.readPktSize::0                     0                       # Read request sizes (log2)
system.mem_ctrls.readPktSize::1                     0                       # Read request sizes (log2)
system.mem_ctrls.readPktSize::2                     0                       # Read request sizes (log2)
system.mem_ctrls.readPktSize::3                     0                       # Read request sizes (log2)
system.mem_ctrls.readPktSize::4                     0                       # Read request sizes (log2)
system.mem_ctrls.readPktSize::5                     0                       # Read request sizes (log2)
system.mem_ctrls.readPktSize::6               2754137                       # Read request sizes (log2)
system.mem_ctrls.writePktSize::0                    0                       # Write request sizes (log2)
system.mem_ctrls.writePktSize::1                    0                       # Write request sizes (log2)
system.mem_ctrls.writePktSize::2                    0                       # Write request sizes (log2)
system.mem_ctrls.writePktSize::3                    0                       # Write request sizes (log2)
system.mem_ctrls.writePktSize::4                    0                       # Write request sizes (log2)
system.mem_ctrls.writePktSize::5                    0                       # Write request sizes (log2)
system.mem_ctrls.writePktSize::6              1453748                       # Write request sizes (log2)
system.mem_ctrls.rdQLenPdf::0                 2715189                       # What read queue length does an incoming req see
system.mem_ctrls.rdQLenPdf::1                   30883                       # What read queue length does an incoming req see
system.mem_ctrls.rdQLenPdf::2                    2610                       # What read queue length does an incoming req see
system.mem_ctrls.rdQLenPdf::3                    1891                       # What read queue length does an incoming req see
system.mem_ctrls.rdQLenPdf::4                       0                       # What read queue length does an incoming req see
system.mem_ctrls.rdQLenPdf::5                       0                       # What read queue length does an incoming req see
system.mem_ctrls.rdQLenPdf::6                       0                       # What read queue length does an incoming req see
system.mem_ctrls.rdQLenPdf::7                       0                       # What read queue length does an incoming req see
system.mem_ctrls.rdQLenPdf::8                       0                       # What read queue length does an incoming req see
system.mem_ctrls.rdQLenPdf::9                       0                       # What read queue length does an incoming req see
system.mem_ctrls.rdQLenPdf::10                      0                       # What read queue length does an incoming req see
system.mem_ctrls.rdQLenPdf::11                      0                       # What read queue length does an incoming req see
system.mem_ctrls.rdQLenPdf::12                      0                       # What read queue length does an incoming req see
system.mem_ctrls.rdQLenPdf::13                      0                       # What read queue length does an incoming req see
system.mem_ctrls.rdQLenPdf::14                      0                       # What read queue length does an incoming req see
system.mem_ctrls.rdQLenPdf::15                      0                       # What read queue length does an incoming req see
system.mem_ctrls.rdQLenPdf::16                      0                       # What read queue length does an incoming req see
system.mem_ctrls.rdQLenPdf::17                      0                       # What read queue length does an incoming req see
system.mem_ctrls.rdQLenPdf::18                      0                       # What read queue length does an incoming req see
system.mem_ctrls.rdQLenPdf::19                      0                       # What read queue length does an incoming req see
system.mem_ctrls.rdQLenPdf::20                      0                       # What read queue length does an incoming req see
system.mem_ctrls.rdQLenPdf::21                      0                       # What read queue length does an incoming req see
system.mem_ctrls.rdQLenPdf::22                      0                       # What read queue length does an incoming req see
system.mem_ctrls.rdQLenPdf::23                      0                       # What read queue length does an incoming req see
system.mem_ctrls.rdQLenPdf::24                      0                       # What read queue length does an incoming req see
system.mem_ctrls.rdQLenPdf::25                      0                       # What read queue length does an incoming req see
system.mem_ctrls.rdQLenPdf::26                      0                       # What read queue length does an incoming req see
system.mem_ctrls.rdQLenPdf::27                      0                       # What read queue length does an incoming req see
system.mem_ctrls.rdQLenPdf::28                      0                       # What read queue length does an incoming req see
system.mem_ctrls.rdQLenPdf::29                      0                       # What read queue length does an incoming req see
system.mem_ctrls.rdQLenPdf::30                      0                       # What read queue length does an incoming req see
system.mem_ctrls.rdQLenPdf::31                      0                       # What read queue length does an incoming req see
system.mem_ctrls.wrQLenPdf::0                       1                       # What write queue length does an incoming req see
system.mem_ctrls.wrQLenPdf::1                       1                       # What write queue length does an incoming req see
system.mem_ctrls.wrQLenPdf::2                       1                       # What write queue length does an incoming req see
system.mem_ctrls.wrQLenPdf::3                       1                       # What write queue length does an incoming req see
system.mem_ctrls.wrQLenPdf::4                       1                       # What write queue length does an incoming req see
system.mem_ctrls.wrQLenPdf::5                       1                       # What write queue length does an incoming req see
system.mem_ctrls.wrQLenPdf::6                       1                       # What write queue length does an incoming req see
system.mem_ctrls.wrQLenPdf::7                       1                       # What write queue length does an incoming req see
system.mem_ctrls.wrQLenPdf::8                       1                       # What write queue length does an incoming req see
system.mem_ctrls.wrQLenPdf::9                       1                       # What write queue length does an incoming req see
system.mem_ctrls.wrQLenPdf::10                      1                       # What write queue length does an incoming req see
system.mem_ctrls.wrQLenPdf::11                      1                       # What write queue length does an incoming req see
system.mem_ctrls.wrQLenPdf::12                      1                       # What write queue length does an incoming req see
system.mem_ctrls.wrQLenPdf::13                      1                       # What write queue length does an incoming req see
system.mem_ctrls.wrQLenPdf::14                      1                       # What write queue length does an incoming req see
system.mem_ctrls.wrQLenPdf::15                  15532                       # What write queue length does an incoming req see
system.mem_ctrls.wrQLenPdf::16                  16335                       # What write queue length does an incoming req see
system.mem_ctrls.wrQLenPdf::17                  88109                       # What write queue length does an incoming req see
system.mem_ctrls.wrQLenPdf::18                  88406                       # What write queue length does an incoming req see
system.mem_ctrls.wrQLenPdf::19                  88746                       # What write queue length does an incoming req see
system.mem_ctrls.wrQLenPdf::20                  88833                       # What write queue length does an incoming req see
system.mem_ctrls.wrQLenPdf::21                  88859                       # What write queue length does an incoming req see
system.mem_ctrls.wrQLenPdf::22                  89144                       # What write queue length does an incoming req see
system.mem_ctrls.wrQLenPdf::23                  89076                       # What write queue length does an incoming req see
system.mem_ctrls.wrQLenPdf::24                  89079                       # What write queue length does an incoming req see
system.mem_ctrls.wrQLenPdf::25                  88882                       # What write queue length does an incoming req see
system.mem_ctrls.wrQLenPdf::26                  88849                       # What write queue length does an incoming req see
system.mem_ctrls.wrQLenPdf::27                  88859                       # What write queue length does an incoming req see
system.mem_ctrls.wrQLenPdf::28                  88863                       # What write queue length does an incoming req see
system.mem_ctrls.wrQLenPdf::29                  89044                       # What write queue length does an incoming req see
system.mem_ctrls.wrQLenPdf::30                  88828                       # What write queue length does an incoming req see
system.mem_ctrls.wrQLenPdf::31                  88958                       # What write queue length does an incoming req see
system.mem_ctrls.wrQLenPdf::32                  88825                       # What write queue length does an incoming req see
system.mem_ctrls.wrQLenPdf::33                     10                       # What write queue length does an incoming req see
system.mem_ctrls.wrQLenPdf::34                      1                       # What write queue length does an incoming req see
system.mem_ctrls.wrQLenPdf::35                      0                       # What write queue length does an incoming req see
system.mem_ctrls.wrQLenPdf::36                      0                       # What write queue length does an incoming req see
system.mem_ctrls.wrQLenPdf::37                      0                       # What write queue length does an incoming req see
system.mem_ctrls.wrQLenPdf::38                      0                       # What write queue length does an incoming req see
system.mem_ctrls.wrQLenPdf::39                      0                       # What write queue length does an incoming req see
system.mem_ctrls.wrQLenPdf::40                      0                       # What write queue length does an incoming req see
system.mem_ctrls.wrQLenPdf::41                      0                       # What write queue length does an incoming req see
system.mem_ctrls.wrQLenPdf::42                      0                       # What write queue length does an incoming req see
system.mem_ctrls.wrQLenPdf::43                      0                       # What write queue length does an incoming req see
system.mem_ctrls.wrQLenPdf::44                      0                       # What write queue length does an incoming req see
system.mem_ctrls.wrQLenPdf::45                      0                       # What write queue length does an incoming req see
system.mem_ctrls.wrQLenPdf::46                      0                       # What write queue length does an incoming req see
system.mem_ctrls.wrQLenPdf::47                      0                       # What write queue length does an incoming req see
system.mem_ctrls.wrQLenPdf::48                      0                       # What write queue length does an incoming req see
system.mem_ctrls.wrQLenPdf::49                      0                       # What write queue length does an incoming req see
system.mem_ctrls.wrQLenPdf::50                      0                       # What write queue length does an incoming req see
system.mem_ctrls.wrQLenPdf::51                      0                       # What write queue length does an incoming req see
system.mem_ctrls.wrQLenPdf::52                      0                       # What write queue length does an incoming req see
system.mem_ctrls.wrQLenPdf::53                      0                       # What write queue length does an incoming req see
system.mem_ctrls.wrQLenPdf::54                      0                       # What write queue length does an incoming req see
system.mem_ctrls.wrQLenPdf::55                      0                       # What write queue length does an incoming req see
system.mem_ctrls.wrQLenPdf::56                      0                       # What write queue length does an incoming req see
system.mem_ctrls.wrQLenPdf::57                      0                       # What write queue length does an incoming req see
system.mem_ctrls.wrQLenPdf::58                      0                       # What write queue length does an incoming req see
system.mem_ctrls.wrQLenPdf::59                      0                       # What write queue length does an incoming req see
system.mem_ctrls.wrQLenPdf::60                      0                       # What write queue length does an incoming req see
system.mem_ctrls.wrQLenPdf::61                      0                       # What write queue length does an incoming req see
system.mem_ctrls.wrQLenPdf::62                      0                       # What write queue length does an incoming req see
system.mem_ctrls.wrQLenPdf::63                      0                       # What write queue length does an incoming req see
system.mem_ctrls.bytesPerActivate::samples       860356                       # Bytes accessed per row activation
system.mem_ctrls.bytesPerActivate::mean    312.712300                       # Bytes accessed per row activation
system.mem_ctrls.bytesPerActivate::gmean   167.819697                       # Bytes accessed per row activation
system.mem_ctrls.bytesPerActivate::stdev   351.671854                       # Bytes accessed per row activation
system.mem_ctrls.bytesPerActivate::0-127       415502     48.29%     48.29% # Bytes accessed per row activation
system.mem_ctrls.bytesPerActivate::128-255       133322     15.50%     63.79% # Bytes accessed per row activation
system.mem_ctrls.bytesPerActivate::256-383        39283      4.57%     68.36% # Bytes accessed per row activation
system.mem_ctrls.bytesPerActivate::384-511        34746      4.04%     72.39% # Bytes accessed per row activation
system.mem_ctrls.bytesPerActivate::512-639        77399      9.00%     81.39% # Bytes accessed per row activation
system.mem_ctrls.bytesPerActivate::640-767        11419      1.33%     82.72% # Bytes accessed per row activation
system.mem_ctrls.bytesPerActivate::768-895         9256      1.08%     83.79% # Bytes accessed per row activation
system.mem_ctrls.bytesPerActivate::896-1023         9229      1.07%     84.87% # Bytes accessed per row activation
system.mem_ctrls.bytesPerActivate::1024-1151       130200     15.13%    100.00% # Bytes accessed per row activation
system.mem_ctrls.bytesPerActivate::total       860356                       # Bytes accessed per row activation
system.mem_ctrls.rdPerTurnAround::samples        88823                       # Reads before turning the bus around for writes
system.mem_ctrls.rdPerTurnAround::mean      30.966439                       # Reads before turning the bus around for writes
system.mem_ctrls.rdPerTurnAround::gmean     27.686964                       # Reads before turning the bus around for writes
system.mem_ctrls.rdPerTurnAround::stdev     84.945915                       # Reads before turning the bus around for writes
system.mem_ctrls.rdPerTurnAround::0-511         88770     99.94%     99.94% # Reads before turning the bus around for writes
system.mem_ctrls.rdPerTurnAround::512-1023           42      0.05%     99.99% # Reads before turning the bus around for writes
system.mem_ctrls.rdPerTurnAround::1024-1535            1      0.00%     99.99% # Reads before turning the bus around for writes
system.mem_ctrls.rdPerTurnAround::1536-2047            3      0.00%     99.99% # Reads before turning the bus around for writes
system.mem_ctrls.rdPerTurnAround::5120-5631            1      0.00%     99.99% # Reads before turning the bus around for writes
system.mem_ctrls.rdPerTurnAround::5632-6143            1      0.00%     99.99% # Reads before turning the bus around for writes
system.mem_ctrls.rdPerTurnAround::6656-7167            1      0.00%    100.00% # Reads before turning the bus around for writes
system.mem_ctrls.rdPerTurnAround::8704-9215            1      0.00%    100.00% # Reads before turning the bus around for writes
system.mem_ctrls.rdPerTurnAround::10752-11263            1      0.00%    100.00% # Reads before turning the bus around for writes
system.mem_ctrls.rdPerTurnAround::11264-11775            2      0.00%    100.00% # Reads before turning the bus around for writes
system.mem_ctrls.rdPerTurnAround::total         88823                       # Reads before turning the bus around for writes
system.mem_ctrls.wrPerTurnAround::samples        88823                       # Writes before turning the bus around for reads
system.mem_ctrls.wrPerTurnAround::mean      16.361055                       # Writes before turning the bus around for reads
system.mem_ctrls.wrPerTurnAround::gmean     16.343943                       # Writes before turning the bus around for reads
system.mem_ctrls.wrPerTurnAround::stdev      0.767513                       # Writes before turning the bus around for reads
system.mem_ctrls.wrPerTurnAround::16            72474     81.59%     81.59% # Writes before turning the bus around for reads
system.mem_ctrls.wrPerTurnAround::17              804      0.91%     82.50% # Writes before turning the bus around for reads
system.mem_ctrls.wrPerTurnAround::18            15381     17.32%     99.82% # Writes before turning the bus around for reads
system.mem_ctrls.wrPerTurnAround::19              156      0.18%     99.99% # Writes before turning the bus around for reads
system.mem_ctrls.wrPerTurnAround::20                6      0.01%    100.00% # Writes before turning the bus around for reads
system.mem_ctrls.wrPerTurnAround::21                1      0.00%    100.00% # Writes before turning the bus around for reads
system.mem_ctrls.wrPerTurnAround::23                1      0.00%    100.00% # Writes before turning the bus around for reads
system.mem_ctrls.wrPerTurnAround::total         88823                       # Writes before turning the bus around for reads
system.mem_ctrls.totQLat                  25690656750                       # Total ticks spent queuing
system.mem_ctrls.totMemAccLat             77263900500                       # Total ticks spent from burst creation until serviced by the DRAM
system.mem_ctrls.totBusLat                13752865000                       # Total ticks spent in databus transfers
system.mem_ctrls.avgQLat                      9340.11                       # Average queueing delay per DRAM burst
system.mem_ctrls.avgBusLat                    5000.00                       # Average bus latency per DRAM burst
system.mem_ctrls.avgMemAccLat                28090.11                       # Average memory access latency per DRAM burst
system.mem_ctrls.avgRdBW                       142.11                       # Average DRAM read bandwidth in MiByte/s
system.mem_ctrls.avgWrBW                        75.08                       # Average achieved write bandwidth in MiByte/s
system.mem_ctrls.avgRdBWSys                    142.29                       # Average system read bandwidth in MiByte/s
system.mem_ctrls.avgWrBWSys                     75.11                       # Average system write bandwidth in MiByte/s
system.mem_ctrls.peakBW                      12800.00                       # Theoretical peak bandwidth in MiByte/s
system.mem_ctrls.busUtil                         1.70                       # Data bus utilization in percentage
system.mem_ctrls.busUtilRead                     1.11                       # Data bus utilization in percentage for reads
system.mem_ctrls.busUtilWrite                    0.59                       # Data bus utilization in percentage for writes
system.mem_ctrls.avgRdQLen                       1.00                       # Average read queue length when enqueuing
system.mem_ctrls.avgWrQLen                      25.39                       # Average write queue length when enqueuing
system.mem_ctrls.readRowHits                  2165979                       # Number of row buffer hits during reads
system.mem_ctrls.writeRowHits                 1177476                       # Number of row buffer hits during writes
system.mem_ctrls.readRowHitRate                 78.75                       # Row buffer hit rate for reads
system.mem_ctrls.writeRowHitRate                81.02                       # Row buffer hit rate for writes
system.mem_ctrls.avgGap                     293362.99                       # Average gap between requests
system.mem_ctrls.pageHitRate                    79.53                       # Row buffer hit rate, read and write combined
system.mem_ctrls_0.actEnergy               3210966360                       # Energy for activate commands per rank (pJ)
system.mem_ctrls_0.preEnergy               1752015375                       # Energy for precharge commands per rank (pJ)
system.mem_ctrls_0.readEnergy             10671905400                       # Energy for read commands per rank (pJ)
system.mem_ctrls_0.writeEnergy             4698408240                       # Energy for write commands per rank (pJ)
system.mem_ctrls_0.refreshEnergy          80910370320                       # Energy for refresh commands per rank (pJ)
system.mem_ctrls_0.actBackEnergy         334895476680                       # Energy for active background per rank (pJ)
system.mem_ctrls_0.preBackEnergy         449493595500                       # Energy for precharge background per rank (pJ)
system.mem_ctrls_0.totalEnergy           885632737875                       # Total energy per rank (pJ)
system.mem_ctrls_0.averagePower            714.929539                       # Core power per rank (mW)
system.mem_ctrls_0.memoryStateTime::IDLE 745362952500                       # Time in different power states
system.mem_ctrls_0.memoryStateTime::REF   41365220000                       # Time in different power states
system.mem_ctrls_0.memoryStateTime::PRE_PDN            0                       # Time in different power states
system.mem_ctrls_0.memoryStateTime::ACT  452041103750                       # Time in different power states
system.mem_ctrls_0.memoryStateTime::ACT_PDN            0                       # Time in different power states
system.mem_ctrls_1.actEnergy               3293325000                       # Energy for activate commands per rank (pJ)
system.mem_ctrls_1.preEnergy               1796953125                       # Energy for precharge commands per rank (pJ)
system.mem_ctrls_1.readEnergy             10782564000                       # Energy for read commands per rank (pJ)
system.mem_ctrls_1.writeEnergy             4718574000                       # Energy for write commands per rank (pJ)
system.mem_ctrls_1.refreshEnergy          80910370320                       # Energy for refresh commands per rank (pJ)
system.mem_ctrls_1.actBackEnergy         341812861020                       # Energy for active background per rank (pJ)
system.mem_ctrls_1.preBackEnergy         443425714500                       # Energy for precharge background per rank (pJ)
system.mem_ctrls_1.totalEnergy           886740361965                       # Total energy per rank (pJ)
system.mem_ctrls_1.averagePower            715.823672                       # Core power per rank (mW)
system.mem_ctrls_1.memoryStateTime::IDLE 735206274750                       # Time in different power states
system.mem_ctrls_1.memoryStateTime::REF   41365220000                       # Time in different power states
system.mem_ctrls_1.memoryStateTime::PRE_PDN            0                       # Time in different power states
system.mem_ctrls_1.memoryStateTime::ACT  462197781500                       # Time in different power states
system.mem_ctrls_1.memoryStateTime::ACT_PDN            0                       # Time in different power states
system.cpu_voltage_domain.voltage                   1                       # Voltage in Volts
system.cpu_clk_domain.clock                       500                       # Clock period in ticks
system.cpu.apic_clk_domain.clock                 8000                       # Clock period in ticks
system.cpu.workload.num_syscalls                   89                       # Number of system calls
system.cpu.numCycles                       2477539805                       # number of cpu cycles simulated
system.cpu.numWorkItemsStarted                      0                       # number of work items this cpu started
system.cpu.numWorkItemsCompleted                    0                       # number of work items this cpu completed
system.cpu.committedInsts                   500000001                       # Number of instructions committed
system.cpu.committedOps                     728937824                       # Number of ops (including micro ops) committed
system.cpu.num_int_alu_accesses             727310589                       # Number of integer alu accesses
system.cpu.num_fp_alu_accesses                    843                       # Number of float alu accesses
system.cpu.num_func_calls                     1427761                       # number of times a function call or return occured
system.cpu.num_conditional_control_insts     32105501                       # number of instructions that are conditional controls
system.cpu.num_int_insts                    727310589                       # number of integer instructions
system.cpu.num_fp_insts                           843                       # number of float instructions
system.cpu.num_int_register_reads          1714991297                       # number of times the integer registers were read
system.cpu.num_int_register_writes          612733141                       # number of times the integer registers were written
system.cpu.num_fp_register_reads                 1319                       # number of times the floating registers were read
system.cpu.num_fp_register_writes                 577                       # number of times the floating registers were written
system.cpu.num_cc_register_reads            181720629                       # number of times the CC registers were read
system.cpu.num_cc_register_writes           264518979                       # number of times the CC registers were written
system.cpu.num_mem_refs                     304821783                       # number of memory refs
system.cpu.num_load_insts                   228115222                       # Number of load instructions
system.cpu.num_store_insts                   76706561                       # Number of store instructions
system.cpu.num_idle_cycles                          0                       # Number of idle cycles
system.cpu.num_busy_cycles                 2477539805                       # Number of busy cycles
system.cpu.not_idle_fraction                        1                       # Percentage of non-idle cycles
system.cpu.idle_fraction                            0                       # Percentage of idle cycles
system.cpu.Branches                          38073397                       # Number of branches fetched
system.cpu.op_class::No_OpClass                960306      0.13%      0.13% # Class of executed instruction
system.cpu.op_class::IntAlu                 423024114     58.03%     58.16% # Class of executed instruction
system.cpu.op_class::IntMult                   130951      0.02%     58.18% # Class of executed instruction
system.cpu.op_class::IntDiv                       140      0.00%     58.18% # Class of executed instruction
system.cpu.op_class::FloatAdd                     530      0.00%     58.18% # Class of executed instruction
system.cpu.op_class::FloatCmp                       0      0.00%     58.18% # Class of executed instruction
system.cpu.op_class::FloatCvt                       0      0.00%     58.18% # Class of executed instruction
system.cpu.op_class::FloatMult                      0      0.00%     58.18% # Class of executed instruction
system.cpu.op_class::FloatDiv                       0      0.00%     58.18% # Class of executed instruction
system.cpu.op_class::FloatSqrt                      0      0.00%     58.18% # Class of executed instruction
system.cpu.op_class::SimdAdd                        0      0.00%     58.18% # Class of executed instruction
system.cpu.op_class::SimdAddAcc                     0      0.00%     58.18% # Class of executed instruction
system.cpu.op_class::SimdAlu                        0      0.00%     58.18% # Class of executed instruction
system.cpu.op_class::SimdCmp                        0      0.00%     58.18% # Class of executed instruction
system.cpu.op_class::SimdCvt                        0      0.00%     58.18% # Class of executed instruction
system.cpu.op_class::SimdMisc                       0      0.00%     58.18% # Class of executed instruction
system.cpu.op_class::SimdMult                       0      0.00%     58.18% # Class of executed instruction
system.cpu.op_class::SimdMultAcc                    0      0.00%     58.18% # Class of executed instruction
system.cpu.op_class::SimdShift                      0      0.00%     58.18% # Class of executed instruction
system.cpu.op_class::SimdShiftAcc                   0      0.00%     58.18% # Class of executed instruction
system.cpu.op_class::SimdSqrt                       0      0.00%     58.18% # Class of executed instruction
system.cpu.op_class::SimdFloatAdd                   0      0.00%     58.18% # Class of executed instruction
system.cpu.op_class::SimdFloatAlu                   0      0.00%     58.18% # Class of executed instruction
system.cpu.op_class::SimdFloatCmp                   0      0.00%     58.18% # Class of executed instruction
system.cpu.op_class::SimdFloatCvt                   0      0.00%     58.18% # Class of executed instruction
system.cpu.op_class::SimdFloatDiv                   0      0.00%     58.18% # Class of executed instruction
system.cpu.op_class::SimdFloatMisc                  0      0.00%     58.18% # Class of executed instruction
system.cpu.op_class::SimdFloatMult                  0      0.00%     58.18% # Class of executed instruction
system.cpu.op_class::SimdFloatMultAcc               0      0.00%     58.18% # Class of executed instruction
system.cpu.op_class::SimdFloatSqrt                  0      0.00%     58.18% # Class of executed instruction
system.cpu.op_class::MemRead                228115222     31.29%     89.48% # Class of executed instruction
system.cpu.op_class::MemWrite                76706561     10.52%    100.00% # Class of executed instruction
system.cpu.op_class::IprAccess                      0      0.00%    100.00% # Class of executed instruction
system.cpu.op_class::InstPrefetch                   0      0.00%    100.00% # Class of executed instruction
system.cpu.op_class::total                  728937824                       # Class of executed instruction
system.cpu.dcache.tags.replacements           5467723                       # number of replacements
system.cpu.dcache.tags.tagsinuse           505.951425                       # Cycle average of tags in use
system.cpu.dcache.tags.total_refs           299353558                       # Total number of references to valid blocks.
system.cpu.dcache.tags.sampled_refs           5468235                       # Sample count of references to valid blocks.
system.cpu.dcache.tags.avg_refs             54.744092                       # Average number of references to valid blocks.
system.cpu.dcache.tags.warmup_cycle       21691920500                       # Cycle when the warmup percentage was hit.
system.cpu.dcache.tags.occ_blocks::cpu.data   505.951425                       # Average occupied blocks per requestor
system.cpu.dcache.tags.occ_percent::cpu.data     0.988186                       # Average percentage of cache occupancy
system.cpu.dcache.tags.occ_percent::total     0.988186                       # Average percentage of cache occupancy
system.cpu.dcache.tags.occ_task_id_blocks::1024          512                       # Occupied blocks per task id
system.cpu.dcache.tags.age_task_id_blocks_1024::0            3                       # Occupied blocks per task id
system.cpu.dcache.tags.age_task_id_blocks_1024::1           36                       # Occupied blocks per task id
system.cpu.dcache.tags.age_task_id_blocks_1024::2          246                       # Occupied blocks per task id
system.cpu.dcache.tags.age_task_id_blocks_1024::3          227                       # Occupied blocks per task id
system.cpu.dcache.tags.occ_task_id_percent::1024            1                       # Percentage of cache occupancy per task id
system.cpu.dcache.tags.tag_accesses         310290028                       # Number of tag accesses
system.cpu.dcache.tags.data_accesses        310290028                       # Number of data accesses
system.cpu.dcache.ReadReq_hits::cpu.data    224492228                       # number of ReadReq hits
system.cpu.dcache.ReadReq_hits::total       224492228                       # number of ReadReq hits
system.cpu.dcache.WriteReq_hits::cpu.data     74861330                       # number of WriteReq hits
system.cpu.dcache.WriteReq_hits::total       74861330                       # number of WriteReq hits
system.cpu.dcache.demand_hits::cpu.data     299353558                       # number of demand (read+write) hits
system.cpu.dcache.demand_hits::total        299353558                       # number of demand (read+write) hits
system.cpu.dcache.overall_hits::cpu.data    299353558                       # number of overall hits
system.cpu.dcache.overall_hits::total       299353558                       # number of overall hits
system.cpu.dcache.ReadReq_misses::cpu.data      3557468                       # number of ReadReq misses
system.cpu.dcache.ReadReq_misses::total       3557468                       # number of ReadReq misses
system.cpu.dcache.WriteReq_misses::cpu.data      1845231                       # number of WriteReq misses
system.cpu.dcache.WriteReq_misses::total      1845231                       # number of WriteReq misses
system.cpu.dcache.SoftPFReq_misses::cpu.data        65536                       # number of SoftPFReq misses
system.cpu.dcache.SoftPFReq_misses::total        65536                       # number of SoftPFReq misses
system.cpu.dcache.demand_misses::cpu.data      5402699                       # number of demand (read+write) misses
system.cpu.dcache.demand_misses::total        5402699                       # number of demand (read+write) misses
system.cpu.dcache.overall_misses::cpu.data      5468235                       # number of overall misses
system.cpu.dcache.overall_misses::total       5468235                       # number of overall misses
system.cpu.dcache.ReadReq_miss_latency::cpu.data 134095204000                       # number of ReadReq miss cycles
system.cpu.dcache.ReadReq_miss_latency::total 134095204000                       # number of ReadReq miss cycles
system.cpu.dcache.WriteReq_miss_latency::cpu.data 116787215000                       # number of WriteReq miss cycles
system.cpu.dcache.WriteReq_miss_latency::total 116787215000                       # number of WriteReq miss cycles
system.cpu.dcache.demand_miss_latency::cpu.data 250882419000                       # number of demand (read+write) miss cycles
system.cpu.dcache.demand_miss_latency::total 250882419000                       # number of demand (read+write) miss cycles
system.cpu.dcache.overall_miss_latency::cpu.data 250882419000                       # number of overall miss cycles
system.cpu.dcache.overall_miss_latency::total 250882419000                       # number of overall miss cycles
system.cpu.dcache.ReadReq_accesses::cpu.data    228049696                       # number of ReadReq accesses(hits+misses)
system.cpu.dcache.ReadReq_accesses::total    228049696                       # number of ReadReq accesses(hits+misses)
system.cpu.dcache.WriteReq_accesses::cpu.data     76706561                       # number of WriteReq accesses(hits+misses)
system.cpu.dcache.WriteReq_accesses::total     76706561                       # number of WriteReq accesses(hits+misses)
system.cpu.dcache.SoftPFReq_accesses::cpu.data        65536                       # number of SoftPFReq accesses(hits+misses)
system.cpu.dcache.SoftPFReq_accesses::total        65536                       # number of SoftPFReq accesses(hits+misses)
system.cpu.dcache.demand_accesses::cpu.data    304756257                       # number of demand (read+write) accesses
system.cpu.dcache.demand_accesses::total    304756257                       # number of demand (read+write) accesses
system.cpu.dcache.overall_accesses::cpu.data    304821793                       # number of overall (read+write) accesses
system.cpu.dcache.overall_accesses::total    304821793                       # number of overall (read+write) accesses
system.cpu.dcache.ReadReq_miss_rate::cpu.data     0.015600                       # miss rate for ReadReq accesses
system.cpu.dcache.ReadReq_miss_rate::total     0.015600                       # miss rate for ReadReq accesses
system.cpu.dcache.WriteReq_miss_rate::cpu.data     0.024056                       # miss rate for WriteReq accesses
system.cpu.dcache.WriteReq_miss_rate::total     0.024056                       # miss rate for WriteReq accesses
system.cpu.dcache.SoftPFReq_miss_rate::cpu.data            1                       # miss rate for SoftPFReq accesses
system.cpu.dcache.SoftPFReq_miss_rate::total            1                       # miss rate for SoftPFReq accesses
system.cpu.dcache.demand_miss_rate::cpu.data     0.017728                       # miss rate for demand accesses
system.cpu.dcache.demand_miss_rate::total     0.017728                       # miss rate for demand accesses
system.cpu.dcache.overall_miss_rate::cpu.data     0.017939                       # miss rate for overall accesses
system.cpu.dcache.overall_miss_rate::total     0.017939                       # miss rate for overall accesses
system.cpu.dcache.ReadReq_avg_miss_latency::cpu.data 37694.001464                       # average ReadReq miss latency
system.cpu.dcache.ReadReq_avg_miss_latency::total 37694.001464                       # average ReadReq miss latency
system.cpu.dcache.WriteReq_avg_miss_latency::cpu.data 63291.379237                       # average WriteReq miss latency
system.cpu.dcache.WriteReq_avg_miss_latency::total 63291.379237                       # average WriteReq miss latency
system.cpu.dcache.demand_avg_miss_latency::cpu.data 46436.497573                       # average overall miss latency
system.cpu.dcache.demand_avg_miss_latency::total 46436.497573                       # average overall miss latency
system.cpu.dcache.overall_avg_miss_latency::cpu.data 45879.962913                       # average overall miss latency
system.cpu.dcache.overall_avg_miss_latency::total 45879.962913                       # average overall miss latency
system.cpu.dcache.blocked_cycles::no_mshrs      1205893                       # number of cycles access was blocked
system.cpu.dcache.blocked_cycles::no_targets            0                       # number of cycles access was blocked
system.cpu.dcache.blocked::no_mshrs             19687                       # number of cycles access was blocked
system.cpu.dcache.blocked::no_targets               0                       # number of cycles access was blocked
system.cpu.dcache.avg_blocked_cycles::no_mshrs    61.253264                       # average number of cycles each access was blocked
system.cpu.dcache.avg_blocked_cycles::no_targets          nan                       # average number of cycles each access was blocked
system.cpu.dcache.fast_writes                       0                       # number of fast writes performed
system.cpu.dcache.cache_copies                      0                       # number of cache copies performed
system.cpu.dcache.writebacks::writebacks      2794386                       # number of writebacks
system.cpu.dcache.writebacks::total           2794386                       # number of writebacks
system.cpu.dcache.ReadReq_mshr_misses::cpu.data      3557468                       # number of ReadReq MSHR misses
system.cpu.dcache.ReadReq_mshr_misses::total      3557468                       # number of ReadReq MSHR misses
system.cpu.dcache.WriteReq_mshr_misses::cpu.data      1845231                       # number of WriteReq MSHR misses
system.cpu.dcache.WriteReq_mshr_misses::total      1845231                       # number of WriteReq MSHR misses
system.cpu.dcache.SoftPFReq_mshr_misses::cpu.data        65536                       # number of SoftPFReq MSHR misses
system.cpu.dcache.SoftPFReq_mshr_misses::total        65536                       # number of SoftPFReq MSHR misses
system.cpu.dcache.demand_mshr_misses::cpu.data      5402699                       # number of demand (read+write) MSHR misses
system.cpu.dcache.demand_mshr_misses::total      5402699                       # number of demand (read+write) MSHR misses
system.cpu.dcache.overall_mshr_misses::cpu.data      5468235                       # number of overall MSHR misses
system.cpu.dcache.overall_mshr_misses::total      5468235                       # number of overall MSHR misses
system.cpu.dcache.ReadReq_mshr_miss_latency::cpu.data 130537736000                       # number of ReadReq MSHR miss cycles
system.cpu.dcache.ReadReq_mshr_miss_latency::total 130537736000                       # number of ReadReq MSHR miss cycles
system.cpu.dcache.WriteReq_mshr_miss_latency::cpu.data 114941984000                       # number of WriteReq MSHR miss cycles
system.cpu.dcache.WriteReq_mshr_miss_latency::total 114941984000                       # number of WriteReq MSHR miss cycles
system.cpu.dcache.SoftPFReq_mshr_miss_latency::cpu.data   5616269427                       # number of SoftPFReq MSHR miss cycles
system.cpu.dcache.SoftPFReq_mshr_miss_latency::total   5616269427                       # number of SoftPFReq MSHR miss cycles
system.cpu.dcache.demand_mshr_miss_latency::cpu.data 245479720000                       # number of demand (read+write) MSHR miss cycles
system.cpu.dcache.demand_mshr_miss_latency::total 245479720000                       # number of demand (read+write) MSHR miss cycles
system.cpu.dcache.overall_mshr_miss_latency::cpu.data 251095989427                       # number of overall MSHR miss cycles
system.cpu.dcache.overall_mshr_miss_latency::total 251095989427                       # number of overall MSHR miss cycles
system.cpu.dcache.ReadReq_mshr_miss_rate::cpu.data     0.015600                       # mshr miss rate for ReadReq accesses
system.cpu.dcache.ReadReq_mshr_miss_rate::total     0.015600                       # mshr miss rate for ReadReq accesses
system.cpu.dcache.WriteReq_mshr_miss_rate::cpu.data     0.024056                       # mshr miss rate for WriteReq accesses
system.cpu.dcache.WriteReq_mshr_miss_rate::total     0.024056                       # mshr miss rate for WriteReq accesses
system.cpu.dcache.SoftPFReq_mshr_miss_rate::cpu.data            1                       # mshr miss rate for SoftPFReq accesses
system.cpu.dcache.SoftPFReq_mshr_miss_rate::total            1                       # mshr miss rate for SoftPFReq accesses
system.cpu.dcache.demand_mshr_miss_rate::cpu.data     0.017728                       # mshr miss rate for demand accesses
system.cpu.dcache.demand_mshr_miss_rate::total     0.017728                       # mshr miss rate for demand accesses
system.cpu.dcache.overall_mshr_miss_rate::cpu.data     0.017939                       # mshr miss rate for overall accesses
system.cpu.dcache.overall_mshr_miss_rate::total     0.017939                       # mshr miss rate for overall accesses
system.cpu.dcache.ReadReq_avg_mshr_miss_latency::cpu.data 36694.001464                       # average ReadReq mshr miss latency
system.cpu.dcache.ReadReq_avg_mshr_miss_latency::total 36694.001464                       # average ReadReq mshr miss latency
system.cpu.dcache.WriteReq_avg_mshr_miss_latency::cpu.data 62291.379237                       # average WriteReq mshr miss latency
system.cpu.dcache.WriteReq_avg_mshr_miss_latency::total 62291.379237                       # average WriteReq mshr miss latency
system.cpu.dcache.SoftPFReq_avg_mshr_miss_latency::cpu.data 85697.470505                       # average SoftPFReq mshr miss latency
system.cpu.dcache.SoftPFReq_avg_mshr_miss_latency::total 85697.470505                       # average SoftPFReq mshr miss latency
system.cpu.dcache.demand_avg_mshr_miss_latency::cpu.data 45436.497573                       # average overall mshr miss latency
system.cpu.dcache.demand_avg_mshr_miss_latency::total 45436.497573                       # average overall mshr miss latency
system.cpu.dcache.overall_avg_mshr_miss_latency::cpu.data 45919.019469                       # average overall mshr miss latency
system.cpu.dcache.overall_avg_mshr_miss_latency::total 45919.019469                       # average overall mshr miss latency
system.cpu.dcache.no_allocate_misses                0                       # Number of misses that were no-allocate
system.cpu.dtb_walker_cache.tags.replacements            0                       # number of replacements
system.cpu.dtb_walker_cache.tags.tagsinuse            0                       # Cycle average of tags in use
system.cpu.dtb_walker_cache.tags.total_refs            0                       # Total number of references to valid blocks.
system.cpu.dtb_walker_cache.tags.sampled_refs            0                       # Sample count of references to valid blocks.
system.cpu.dtb_walker_cache.tags.avg_refs          nan                       # Average number of references to valid blocks.
system.cpu.dtb_walker_cache.tags.warmup_cycle            0                       # Cycle when the warmup percentage was hit.
system.cpu.dtb_walker_cache.tags.tag_accesses            0                       # Number of tag accesses
system.cpu.dtb_walker_cache.tags.data_accesses            0                       # Number of data accesses
system.cpu.dtb_walker_cache.blocked_cycles::no_mshrs            0                       # number of cycles access was blocked
system.cpu.dtb_walker_cache.blocked_cycles::no_targets            0                       # number of cycles access was blocked
system.cpu.dtb_walker_cache.blocked::no_mshrs            0                       # number of cycles access was blocked
system.cpu.dtb_walker_cache.blocked::no_targets            0                       # number of cycles access was blocked
system.cpu.dtb_walker_cache.avg_blocked_cycles::no_mshrs          nan                       # average number of cycles each access was blocked
system.cpu.dtb_walker_cache.avg_blocked_cycles::no_targets          nan                       # average number of cycles each access was blocked
system.cpu.dtb_walker_cache.fast_writes             0                       # number of fast writes performed
system.cpu.dtb_walker_cache.cache_copies            0                       # number of cache copies performed
system.cpu.dtb_walker_cache.no_allocate_misses            0                       # Number of misses that were no-allocate
system.cpu.icache.tags.replacements               276                       # number of replacements
system.cpu.icache.tags.tagsinuse           508.636704                       # Cycle average of tags in use
system.cpu.icache.tags.total_refs           687817804                       # Total number of references to valid blocks.
system.cpu.icache.tags.sampled_refs              1001                       # Sample count of references to valid blocks.
system.cpu.icache.tags.avg_refs          687130.673327                       # Average number of references to valid blocks.
system.cpu.icache.tags.warmup_cycle                 0                       # Cycle when the warmup percentage was hit.
system.cpu.icache.tags.occ_blocks::cpu.inst   508.636704                       # Average occupied blocks per requestor
system.cpu.icache.tags.occ_percent::cpu.inst     0.496716                       # Average percentage of cache occupancy
system.cpu.icache.tags.occ_percent::total     0.496716                       # Average percentage of cache occupancy
system.cpu.icache.tags.occ_task_id_blocks::1024          725                       # Occupied blocks per task id
system.cpu.icache.tags.age_task_id_blocks_1024::4          725                       # Occupied blocks per task id
system.cpu.icache.tags.occ_task_id_percent::1024     0.708008                       # Percentage of cache occupancy per task id
system.cpu.icache.tags.tag_accesses         687819806                       # Number of tag accesses
system.cpu.icache.tags.data_accesses        687819806                       # Number of data accesses
system.cpu.icache.ReadReq_hits::cpu.inst    687817804                       # number of ReadReq hits
system.cpu.icache.ReadReq_hits::total       687817804                       # number of ReadReq hits
system.cpu.icache.demand_hits::cpu.inst     687817804                       # number of demand (read+write) hits
system.cpu.icache.demand_hits::total        687817804                       # number of demand (read+write) hits
system.cpu.icache.overall_hits::cpu.inst    687817804                       # number of overall hits
system.cpu.icache.overall_hits::total       687817804                       # number of overall hits
system.cpu.icache.ReadReq_misses::cpu.inst         1001                       # number of ReadReq misses
system.cpu.icache.ReadReq_misses::total          1001                       # number of ReadReq misses
system.cpu.icache.demand_misses::cpu.inst         1001                       # number of demand (read+write) misses
system.cpu.icache.demand_misses::total           1001                       # number of demand (read+write) misses
system.cpu.icache.overall_misses::cpu.inst         1001                       # number of overall misses
system.cpu.icache.overall_misses::total          1001                       # number of overall misses
system.cpu.icache.ReadReq_miss_latency::cpu.inst     77118500                       # number of ReadReq miss cycles
system.cpu.icache.ReadReq_miss_latency::total     77118500                       # number of ReadReq miss cycles
system.cpu.icache.demand_miss_latency::cpu.inst     77118500                       # number of demand (read+write) miss cycles
system.cpu.icache.demand_miss_latency::total     77118500                       # number of demand (read+write) miss cycles
system.cpu.icache.overall_miss_latency::cpu.inst     77118500                       # number of overall miss cycles
system.cpu.icache.overall_miss_latency::total     77118500                       # number of overall miss cycles
system.cpu.icache.ReadReq_accesses::cpu.inst    687818805                       # number of ReadReq accesses(hits+misses)
system.cpu.icache.ReadReq_accesses::total    687818805                       # number of ReadReq accesses(hits+misses)
system.cpu.icache.demand_accesses::cpu.inst    687818805                       # number of demand (read+write) accesses
system.cpu.icache.demand_accesses::total    687818805                       # number of demand (read+write) accesses
system.cpu.icache.overall_accesses::cpu.inst    687818805                       # number of overall (read+write) accesses
system.cpu.icache.overall_accesses::total    687818805                       # number of overall (read+write) accesses
system.cpu.icache.ReadReq_miss_rate::cpu.inst     0.000001                       # miss rate for ReadReq accesses
system.cpu.icache.ReadReq_miss_rate::total     0.000001                       # miss rate for ReadReq accesses
system.cpu.icache.demand_miss_rate::cpu.inst     0.000001                       # miss rate for demand accesses
system.cpu.icache.demand_miss_rate::total     0.000001                       # miss rate for demand accesses
system.cpu.icache.overall_miss_rate::cpu.inst     0.000001                       # miss rate for overall accesses
system.cpu.icache.overall_miss_rate::total     0.000001                       # miss rate for overall accesses
system.cpu.icache.ReadReq_avg_miss_latency::cpu.inst 77041.458541                       # average ReadReq miss latency
system.cpu.icache.ReadReq_avg_miss_latency::total 77041.458541                       # average ReadReq miss latency
system.cpu.icache.demand_avg_miss_latency::cpu.inst 77041.458541                       # average overall miss latency
system.cpu.icache.demand_avg_miss_latency::total 77041.458541                       # average overall miss latency
system.cpu.icache.overall_avg_miss_latency::cpu.inst 77041.458541                       # average overall miss latency
system.cpu.icache.overall_avg_miss_latency::total 77041.458541                       # average overall miss latency
system.cpu.icache.blocked_cycles::no_mshrs            0                       # number of cycles access was blocked
system.cpu.icache.blocked_cycles::no_targets            0                       # number of cycles access was blocked
system.cpu.icache.blocked::no_mshrs                 0                       # number of cycles access was blocked
system.cpu.icache.blocked::no_targets               0                       # number of cycles access was blocked
system.cpu.icache.avg_blocked_cycles::no_mshrs          nan                       # average number of cycles each access was blocked
system.cpu.icache.avg_blocked_cycles::no_targets          nan                       # average number of cycles each access was blocked
system.cpu.icache.fast_writes                       0                       # number of fast writes performed
system.cpu.icache.cache_copies                      0                       # number of cache copies performed
system.cpu.icache.writebacks::writebacks          276                       # number of writebacks
system.cpu.icache.writebacks::total               276                       # number of writebacks
system.cpu.icache.ReadReq_mshr_misses::cpu.inst         1001                       # number of ReadReq MSHR misses
system.cpu.icache.ReadReq_mshr_misses::total         1001                       # number of ReadReq MSHR misses
system.cpu.icache.demand_mshr_misses::cpu.inst         1001                       # number of demand (read+write) MSHR misses
system.cpu.icache.demand_mshr_misses::total         1001                       # number of demand (read+write) MSHR misses
system.cpu.icache.overall_mshr_misses::cpu.inst         1001                       # number of overall MSHR misses
system.cpu.icache.overall_mshr_misses::total         1001                       # number of overall MSHR misses
system.cpu.icache.ReadReq_mshr_miss_latency::cpu.inst     76117500                       # number of ReadReq MSHR miss cycles
system.cpu.icache.ReadReq_mshr_miss_latency::total     76117500                       # number of ReadReq MSHR miss cycles
system.cpu.icache.demand_mshr_miss_latency::cpu.inst     76117500                       # number of demand (read+write) MSHR miss cycles
system.cpu.icache.demand_mshr_miss_latency::total     76117500                       # number of demand (read+write) MSHR miss cycles
system.cpu.icache.overall_mshr_miss_latency::cpu.inst     76117500                       # number of overall MSHR miss cycles
system.cpu.icache.overall_mshr_miss_latency::total     76117500                       # number of overall MSHR miss cycles
system.cpu.icache.ReadReq_mshr_miss_rate::cpu.inst     0.000001                       # mshr miss rate for ReadReq accesses
system.cpu.icache.ReadReq_mshr_miss_rate::total     0.000001                       # mshr miss rate for ReadReq accesses
system.cpu.icache.demand_mshr_miss_rate::cpu.inst     0.000001                       # mshr miss rate for demand accesses
system.cpu.icache.demand_mshr_miss_rate::total     0.000001                       # mshr miss rate for demand accesses
system.cpu.icache.overall_mshr_miss_rate::cpu.inst     0.000001                       # mshr miss rate for overall accesses
system.cpu.icache.overall_mshr_miss_rate::total     0.000001                       # mshr miss rate for overall accesses
system.cpu.icache.ReadReq_avg_mshr_miss_latency::cpu.inst 76041.458541                       # average ReadReq mshr miss latency
system.cpu.icache.ReadReq_avg_mshr_miss_latency::total 76041.458541                       # average ReadReq mshr miss latency
system.cpu.icache.demand_avg_mshr_miss_latency::cpu.inst 76041.458541                       # average overall mshr miss latency
system.cpu.icache.demand_avg_mshr_miss_latency::total 76041.458541                       # average overall mshr miss latency
system.cpu.icache.overall_avg_mshr_miss_latency::cpu.inst 76041.458541                       # average overall mshr miss latency
system.cpu.icache.overall_avg_mshr_miss_latency::total 76041.458541                       # average overall mshr miss latency
system.cpu.icache.no_allocate_misses                0                       # Number of misses that were no-allocate
system.cpu.itb_walker_cache.tags.replacements            0                       # number of replacements
system.cpu.itb_walker_cache.tags.tagsinuse            0                       # Cycle average of tags in use
system.cpu.itb_walker_cache.tags.total_refs            0                       # Total number of references to valid blocks.
system.cpu.itb_walker_cache.tags.sampled_refs            0                       # Sample count of references to valid blocks.
system.cpu.itb_walker_cache.tags.avg_refs          nan                       # Average number of references to valid blocks.
system.cpu.itb_walker_cache.tags.warmup_cycle            0                       # Cycle when the warmup percentage was hit.
system.cpu.itb_walker_cache.tags.tag_accesses            0                       # Number of tag accesses
system.cpu.itb_walker_cache.tags.data_accesses            0                       # Number of data accesses
system.cpu.itb_walker_cache.blocked_cycles::no_mshrs            0                       # number of cycles access was blocked
system.cpu.itb_walker_cache.blocked_cycles::no_targets            0                       # number of cycles access was blocked
system.cpu.itb_walker_cache.blocked::no_mshrs            0                       # number of cycles access was blocked
system.cpu.itb_walker_cache.blocked::no_targets            0                       # number of cycles access was blocked
system.cpu.itb_walker_cache.avg_blocked_cycles::no_mshrs          nan                       # average number of cycles each access was blocked
system.cpu.itb_walker_cache.avg_blocked_cycles::no_targets          nan                       # average number of cycles each access was blocked
system.cpu.itb_walker_cache.fast_writes             0                       # number of fast writes performed
system.cpu.itb_walker_cache.cache_copies            0                       # number of cache copies performed
system.cpu.itb_walker_cache.no_allocate_misses            0                       # Number of misses that were no-allocate
system.l2.tags.replacements                   2749822                       # number of replacements
system.l2.tags.tagsinuse                 15987.955090                       # Cycle average of tags in use
system.l2.tags.total_refs                     6303484                       # Total number of references to valid blocks.
system.l2.tags.sampled_refs                   2766202                       # Sample count of references to valid blocks.
system.l2.tags.avg_refs                      2.278750                       # Average number of references to valid blocks.
system.l2.tags.warmup_cycle               45313030500                       # Cycle when the warmup percentage was hit.
system.l2.tags.occ_blocks::writebacks     7887.464926                       # Average occupied blocks per requestor
system.l2.tags.occ_blocks::cpu.inst          7.661963                       # Average occupied blocks per requestor
system.l2.tags.occ_blocks::cpu.data       8092.828201                       # Average occupied blocks per requestor
system.l2.tags.occ_percent::writebacks       0.481413                       # Average percentage of cache occupancy
system.l2.tags.occ_percent::cpu.inst         0.000468                       # Average percentage of cache occupancy
system.l2.tags.occ_percent::cpu.data         0.493947                       # Average percentage of cache occupancy
system.l2.tags.occ_percent::total            0.975827                       # Average percentage of cache occupancy
system.l2.tags.occ_task_id_blocks::1024         16380                       # Occupied blocks per task id
system.l2.tags.age_task_id_blocks_1024::2           14                       # Occupied blocks per task id
system.l2.tags.age_task_id_blocks_1024::3          126                       # Occupied blocks per task id
system.l2.tags.age_task_id_blocks_1024::4        16240                       # Occupied blocks per task id
system.l2.tags.occ_task_id_percent::1024     0.999756                       # Percentage of cache occupancy per task id
system.l2.tags.tag_accesses                  15548667                       # Number of tag accesses
system.l2.tags.data_accesses                 15548667                       # Number of data accesses
system.l2.WritebackDirty_hits::writebacks      2794386                       # number of WritebackDirty hits
system.l2.WritebackDirty_hits::total          2794386                       # number of WritebackDirty hits
system.l2.WritebackClean_hits::writebacks          276                       # number of WritebackClean hits
system.l2.WritebackClean_hits::total              276                       # number of WritebackClean hits
system.l2.ReadExReq_hits::cpu.data             502208                       # number of ReadExReq hits
system.l2.ReadExReq_hits::total                502208                       # number of ReadExReq hits
system.l2.ReadCleanReq_hits::cpu.inst              29                       # number of ReadCleanReq hits
system.l2.ReadCleanReq_hits::total                 29                       # number of ReadCleanReq hits
system.l2.ReadSharedReq_hits::cpu.data        2212862                       # number of ReadSharedReq hits
system.l2.ReadSharedReq_hits::total           2212862                       # number of ReadSharedReq hits
system.l2.demand_hits::cpu.inst                    29                       # number of demand (read+write) hits
system.l2.demand_hits::cpu.data               2715070                       # number of demand (read+write) hits
system.l2.demand_hits::total                  2715099                       # number of demand (read+write) hits
system.l2.overall_hits::cpu.inst                   29                       # number of overall hits
system.l2.overall_hits::cpu.data              2715070                       # number of overall hits
system.l2.overall_hits::total                 2715099                       # number of overall hits
system.l2.ReadExReq_misses::cpu.data          1343023                       # number of ReadExReq misses
system.l2.ReadExReq_misses::total             1343023                       # number of ReadExReq misses
system.l2.ReadCleanReq_misses::cpu.inst           972                       # number of ReadCleanReq misses
system.l2.ReadCleanReq_misses::total              972                       # number of ReadCleanReq misses
system.l2.ReadSharedReq_misses::cpu.data      1410142                       # number of ReadSharedReq misses
system.l2.ReadSharedReq_misses::total         1410142                       # number of ReadSharedReq misses
system.l2.demand_misses::cpu.inst                 972                       # number of demand (read+write) misses
system.l2.demand_misses::cpu.data             2753165                       # number of demand (read+write) misses
system.l2.demand_misses::total                2754137                       # number of demand (read+write) misses
system.l2.overall_misses::cpu.inst                972                       # number of overall misses
system.l2.overall_misses::cpu.data            2753165                       # number of overall misses
system.l2.overall_misses::total               2754137                       # number of overall misses
system.l2.ReadExReq_miss_latency::cpu.data 106900802500                       # number of ReadExReq miss cycles
system.l2.ReadExReq_miss_latency::total  106900802500                       # number of ReadExReq miss cycles
system.l2.ReadCleanReq_miss_latency::cpu.inst     74310000                       # number of ReadCleanReq miss cycles
system.l2.ReadCleanReq_miss_latency::total     74310000                       # number of ReadCleanReq miss cycles
system.l2.ReadSharedReq_miss_latency::cpu.data 107477245000                       # number of ReadSharedReq miss cycles
system.l2.ReadSharedReq_miss_latency::total 107477245000                       # number of ReadSharedReq miss cycles
system.l2.demand_miss_latency::cpu.inst      74310000                       # number of demand (read+write) miss cycles
system.l2.demand_miss_latency::cpu.data  214378047500                       # number of demand (read+write) miss cycles
system.l2.demand_miss_latency::total     214452357500                       # number of demand (read+write) miss cycles
system.l2.overall_miss_latency::cpu.inst     74310000                       # number of overall miss cycles
system.l2.overall_miss_latency::cpu.data 214378047500                       # number of overall miss cycles
system.l2.overall_miss_latency::total    214452357500                       # number of overall miss cycles
system.l2.WritebackDirty_accesses::writebacks      2794386                       # number of WritebackDirty accesses(hits+misses)
system.l2.WritebackDirty_accesses::total      2794386                       # number of WritebackDirty accesses(hits+misses)
system.l2.WritebackClean_accesses::writebacks          276                       # number of WritebackClean accesses(hits+misses)
system.l2.WritebackClean_accesses::total          276                       # number of WritebackClean accesses(hits+misses)
system.l2.ReadExReq_accesses::cpu.data        1845231                       # number of ReadExReq accesses(hits+misses)
system.l2.ReadExReq_accesses::total           1845231                       # number of ReadExReq accesses(hits+misses)
system.l2.ReadCleanReq_accesses::cpu.inst         1001                       # number of ReadCleanReq accesses(hits+misses)
system.l2.ReadCleanReq_accesses::total           1001                       # number of ReadCleanReq accesses(hits+misses)
system.l2.ReadSharedReq_accesses::cpu.data      3623004                       # number of ReadSharedReq accesses(hits+misses)
system.l2.ReadSharedReq_accesses::total       3623004                       # number of ReadSharedReq accesses(hits+misses)
system.l2.demand_accesses::cpu.inst              1001                       # number of demand (read+write) accesses
system.l2.demand_accesses::cpu.data           5468235                       # number of demand (read+write) accesses
system.l2.demand_accesses::total              5469236                       # number of demand (read+write) accesses
system.l2.overall_accesses::cpu.inst             1001                       # number of overall (read+write) accesses
system.l2.overall_accesses::cpu.data          5468235                       # number of overall (read+write) accesses
system.l2.overall_accesses::total             5469236                       # number of overall (read+write) accesses
system.l2.ReadExReq_miss_rate::cpu.data      0.727835                       # miss rate for ReadExReq accesses
system.l2.ReadExReq_miss_rate::total         0.727835                       # miss rate for ReadExReq accesses
system.l2.ReadCleanReq_miss_rate::cpu.inst     0.971029                       # miss rate for ReadCleanReq accesses
system.l2.ReadCleanReq_miss_rate::total      0.971029                       # miss rate for ReadCleanReq accesses
system.l2.ReadSharedReq_miss_rate::cpu.data     0.389219                       # miss rate for ReadSharedReq accesses
system.l2.ReadSharedReq_miss_rate::total     0.389219                       # miss rate for ReadSharedReq accesses
system.l2.demand_miss_rate::cpu.inst         0.971029                       # miss rate for demand accesses
system.l2.demand_miss_rate::cpu.data         0.503483                       # miss rate for demand accesses
system.l2.demand_miss_rate::total            0.503569                       # miss rate for demand accesses
system.l2.overall_miss_rate::cpu.inst        0.971029                       # miss rate for overall accesses
system.l2.overall_miss_rate::cpu.data        0.503483                       # miss rate for overall accesses
system.l2.overall_miss_rate::total           0.503569                       # miss rate for overall accesses
system.l2.ReadExReq_avg_miss_latency::cpu.data 79597.149490                       # average ReadExReq miss latency
system.l2.ReadExReq_avg_miss_latency::total 79597.149490                       # average ReadExReq miss latency
system.l2.ReadCleanReq_avg_miss_latency::cpu.inst 76450.617284                       # average ReadCleanReq miss latency
system.l2.ReadCleanReq_avg_miss_latency::total 76450.617284                       # average ReadCleanReq miss latency
system.l2.ReadSharedReq_avg_miss_latency::cpu.data 76217.320667                       # average ReadSharedReq miss latency
system.l2.ReadSharedReq_avg_miss_latency::total 76217.320667                       # average ReadSharedReq miss latency
system.l2.demand_avg_miss_latency::cpu.inst 76450.617284                       # average overall miss latency
system.l2.demand_avg_miss_latency::cpu.data 77866.036907                       # average overall miss latency
system.l2.demand_avg_miss_latency::total 77865.537372                       # average overall miss latency
system.l2.overall_avg_miss_latency::cpu.inst 76450.617284                       # average overall miss latency
system.l2.overall_avg_miss_latency::cpu.data 77866.036907                       # average overall miss latency
system.l2.overall_avg_miss_latency::total 77865.537372                       # average overall miss latency
system.l2.blocked_cycles::no_mshrs                  0                       # number of cycles access was blocked
system.l2.blocked_cycles::no_targets                0                       # number of cycles access was blocked
system.l2.blocked::no_mshrs                         0                       # number of cycles access was blocked
system.l2.blocked::no_targets                       0                       # number of cycles access was blocked
system.l2.avg_blocked_cycles::no_mshrs            nan                       # average number of cycles each access was blocked
system.l2.avg_blocked_cycles::no_targets          nan                       # average number of cycles each access was blocked
system.l2.fast_writes                               0                       # number of fast writes performed
system.l2.cache_copies                              0                       # number of cache copies performed
system.l2.writebacks::writebacks              1453748                       # number of writebacks
system.l2.writebacks::total                   1453748                       # number of writebacks
system.l2.CleanEvict_mshr_misses::writebacks        22293                       # number of CleanEvict MSHR misses
system.l2.CleanEvict_mshr_misses::total         22293                       # number of CleanEvict MSHR misses
system.l2.ReadExReq_mshr_misses::cpu.data      1343023                       # number of ReadExReq MSHR misses
system.l2.ReadExReq_mshr_misses::total        1343023                       # number of ReadExReq MSHR misses
system.l2.ReadCleanReq_mshr_misses::cpu.inst          972                       # number of ReadCleanReq MSHR misses
system.l2.ReadCleanReq_mshr_misses::total          972                       # number of ReadCleanReq MSHR misses
system.l2.ReadSharedReq_mshr_misses::cpu.data      1410142                       # number of ReadSharedReq MSHR misses
system.l2.ReadSharedReq_mshr_misses::total      1410142                       # number of ReadSharedReq MSHR misses
system.l2.demand_mshr_misses::cpu.inst            972                       # number of demand (read+write) MSHR misses
system.l2.demand_mshr_misses::cpu.data        2753165                       # number of demand (read+write) MSHR misses
system.l2.demand_mshr_misses::total           2754137                       # number of demand (read+write) MSHR misses
system.l2.overall_mshr_misses::cpu.inst           972                       # number of overall MSHR misses
system.l2.overall_mshr_misses::cpu.data       2753165                       # number of overall MSHR misses
system.l2.overall_mshr_misses::total          2754137                       # number of overall MSHR misses
system.l2.ReadExReq_mshr_miss_latency::cpu.data  93470572500                       # number of ReadExReq MSHR miss cycles
system.l2.ReadExReq_mshr_miss_latency::total  93470572500                       # number of ReadExReq MSHR miss cycles
system.l2.ReadCleanReq_mshr_miss_latency::cpu.inst     64590000                       # number of ReadCleanReq MSHR miss cycles
system.l2.ReadCleanReq_mshr_miss_latency::total     64590000                       # number of ReadCleanReq MSHR miss cycles
system.l2.ReadSharedReq_mshr_miss_latency::cpu.data  93375825000                       # number of ReadSharedReq MSHR miss cycles
system.l2.ReadSharedReq_mshr_miss_latency::total  93375825000                       # number of ReadSharedReq MSHR miss cycles
system.l2.demand_mshr_miss_latency::cpu.inst     64590000                       # number of demand (read+write) MSHR miss cycles
system.l2.demand_mshr_miss_latency::cpu.data 186846397500                       # number of demand (read+write) MSHR miss cycles
system.l2.demand_mshr_miss_latency::total 186910987500                       # number of demand (read+write) MSHR miss cycles
system.l2.overall_mshr_miss_latency::cpu.inst     64590000                       # number of overall MSHR miss cycles
system.l2.overall_mshr_miss_latency::cpu.data 186846397500                       # number of overall MSHR miss cycles
system.l2.overall_mshr_miss_latency::total 186910987500                       # number of overall MSHR miss cycles
system.l2.CleanEvict_mshr_miss_rate::writebacks          inf                       # mshr miss rate for CleanEvict accesses
system.l2.CleanEvict_mshr_miss_rate::total          inf                       # mshr miss rate for CleanEvict accesses
system.l2.ReadExReq_mshr_miss_rate::cpu.data     0.727835                       # mshr miss rate for ReadExReq accesses
system.l2.ReadExReq_mshr_miss_rate::total     0.727835                       # mshr miss rate for ReadExReq accesses
system.l2.ReadCleanReq_mshr_miss_rate::cpu.inst     0.971029                       # mshr miss rate for ReadCleanReq accesses
system.l2.ReadCleanReq_mshr_miss_rate::total     0.971029                       # mshr miss rate for ReadCleanReq accesses
system.l2.ReadSharedReq_mshr_miss_rate::cpu.data     0.389219                       # mshr miss rate for ReadSharedReq accesses
system.l2.ReadSharedReq_mshr_miss_rate::total     0.389219                       # mshr miss rate for ReadSharedReq accesses
system.l2.demand_mshr_miss_rate::cpu.inst     0.971029                       # mshr miss rate for demand accesses
system.l2.demand_mshr_miss_rate::cpu.data     0.503483                       # mshr miss rate for demand accesses
system.l2.demand_mshr_miss_rate::total       0.503569                       # mshr miss rate for demand accesses
system.l2.overall_mshr_miss_rate::cpu.inst     0.971029                       # mshr miss rate for overall accesses
system.l2.overall_mshr_miss_rate::cpu.data     0.503483                       # mshr miss rate for overall accesses
system.l2.overall_mshr_miss_rate::total      0.503569                       # mshr miss rate for overall accesses
system.l2.ReadExReq_avg_mshr_miss_latency::cpu.data 69597.149490                       # average ReadExReq mshr miss latency
system.l2.ReadExReq_avg_mshr_miss_latency::total 69597.149490                       # average ReadExReq mshr miss latency
system.l2.ReadCleanReq_avg_mshr_miss_latency::cpu.inst 66450.617284                       # average ReadCleanReq mshr miss latency
system.l2.ReadCleanReq_avg_mshr_miss_latency::total 66450.617284                       # average ReadCleanReq mshr miss latency
system.l2.ReadSharedReq_avg_mshr_miss_latency::cpu.data 66217.320667                       # average ReadSharedReq mshr miss latency
system.l2.ReadSharedReq_avg_mshr_miss_latency::total 66217.320667                       # average ReadSharedReq mshr miss latency
system.l2.demand_avg_mshr_miss_latency::cpu.inst 66450.617284                       # average overall mshr miss latency
system.l2.demand_avg_mshr_miss_latency::cpu.data 67866.036907                       # average overall mshr miss latency
system.l2.demand_avg_mshr_miss_latency::total 67865.537372                       # average overall mshr miss latency
system.l2.overall_avg_mshr_miss_latency::cpu.inst 66450.617284                       # average overall mshr miss latency
system.l2.overall_avg_mshr_miss_latency::cpu.data 67866.036907                       # average overall mshr miss latency
system.l2.overall_avg_mshr_miss_latency::total 67865.537372                       # average overall mshr miss latency
system.l2.no_allocate_misses                        0                       # Number of misses that were no-allocate
system.membus.trans_dist::ReadResp            1411114                       # Transaction distribution
system.membus.trans_dist::WritebackDirty      1453748                       # Transaction distribution
system.membus.trans_dist::CleanEvict          1283289                       # Transaction distribution
system.membus.trans_dist::ReadExReq           1343023                       # Transaction distribution
system.membus.trans_dist::ReadExResp          1343023                       # Transaction distribution
system.membus.trans_dist::ReadSharedReq       1411114                       # Transaction distribution
system.membus.pkt_count_system.l2.mem_side::system.mem_ctrls.port      8245311                       # Packet count per connected master and slave (bytes)
system.membus.pkt_count_system.l2.mem_side::total      8245311                       # Packet count per connected master and slave (bytes)
system.membus.pkt_count::total                8245311                       # Packet count per connected master and slave (bytes)
system.membus.pkt_size_system.l2.mem_side::system.mem_ctrls.port    269304640                       # Cumulative packet size per connected master and slave (bytes)
system.membus.pkt_size_system.l2.mem_side::total    269304640                       # Cumulative packet size per connected master and slave (bytes)
system.membus.pkt_size::total               269304640                       # Cumulative packet size per connected master and slave (bytes)
system.membus.snoops                                0                       # Total snoops (count)
system.membus.snoop_fanout::samples           5491174                       # Request fanout histogram
system.membus.snoop_fanout::mean                    0                       # Request fanout histogram
system.membus.snoop_fanout::stdev                   0                       # Request fanout histogram
system.membus.snoop_fanout::underflows              0      0.00%      0.00% # Request fanout histogram
system.membus.snoop_fanout::0                 5491174    100.00%    100.00% # Request fanout histogram
system.membus.snoop_fanout::1                       0      0.00%    100.00% # Request fanout histogram
system.membus.snoop_fanout::overflows               0      0.00%    100.00% # Request fanout histogram
system.membus.snoop_fanout::min_value               0                       # Request fanout histogram
system.membus.snoop_fanout::max_value               0                       # Request fanout histogram
system.membus.snoop_fanout::total             5491174                       # Request fanout histogram
system.membus.reqLayer2.occupancy         11337386500                       # Layer occupancy (ticks)
system.membus.reqLayer2.utilization               0.9                       # Layer utilization (%)
system.membus.respLayer1.occupancy        14617736500                       # Layer occupancy (ticks)
system.membus.respLayer1.utilization              1.2                       # Layer utilization (%)
system.tol2bus.snoop_filter.tot_requests     10937235                       # Total number of requests made to the snoop filter.
system.tol2bus.snoop_filter.hit_single_requests      5467999                       # Number of requests hitting in the snoop filter with a single holder of the requested data.
system.tol2bus.snoop_filter.hit_multi_requests            1                       # Number of requests hitting in the snoop filter with multiple (>1) holders of the requested data.
system.tol2bus.snoop_filter.tot_snoops          35078                       # Total number of snoops made to the snoop filter.
system.tol2bus.snoop_filter.hit_single_snoops        35078                       # Number of snoops hitting in the snoop filter with a single holder of the requested data.
system.tol2bus.snoop_filter.hit_multi_snoops            0                       # Number of snoops hitting in the snoop filter with multiple (>1) holders of the requested data.
system.tol2bus.trans_dist::ReadResp           3624005                       # Transaction distribution
system.tol2bus.trans_dist::WritebackDirty      4248134                       # Transaction distribution
system.tol2bus.trans_dist::WritebackClean          276                       # Transaction distribution
system.tol2bus.trans_dist::CleanEvict         3969410                       # Transaction distribution
system.tol2bus.trans_dist::ReadExReq          1845231                       # Transaction distribution
system.tol2bus.trans_dist::ReadExResp         1845231                       # Transaction distribution
system.tol2bus.trans_dist::ReadCleanReq          1001                       # Transaction distribution
system.tol2bus.trans_dist::ReadSharedReq      3623004                       # Transaction distribution
system.tol2bus.pkt_count_system.cpu.icache.mem_side::system.l2.cpu_side         2278                       # Packet count per connected master and slave (bytes)
system.tol2bus.pkt_count_system.cpu.dcache.mem_side::system.l2.cpu_side     16404192                       # Packet count per connected master and slave (bytes)
system.tol2bus.pkt_count::total              16406470                       # Packet count per connected master and slave (bytes)
system.tol2bus.pkt_size_system.cpu.icache.mem_side::system.l2.cpu_side        81728                       # Cumulative packet size per connected master and slave (bytes)
system.tol2bus.pkt_size_system.cpu.dcache.mem_side::system.l2.cpu_side    528807744                       # Cumulative packet size per connected master and slave (bytes)
system.tol2bus.pkt_size::total              528889472                       # Cumulative packet size per connected master and slave (bytes)
system.tol2bus.snoops                         2749822                       # Total snoops (count)
system.tol2bus.snoop_fanout::samples          8219058                       # Request fanout histogram
system.tol2bus.snoop_fanout::mean            0.004268                       # Request fanout histogram
system.tol2bus.snoop_fanout::stdev           0.065190                       # Request fanout histogram
system.tol2bus.snoop_fanout::underflows             0      0.00%      0.00% # Request fanout histogram
system.tol2bus.snoop_fanout::0                8183979     99.57%     99.57% # Request fanout histogram
system.tol2bus.snoop_fanout::1                  35079      0.43%    100.00% # Request fanout histogram
system.tol2bus.snoop_fanout::2                      0      0.00%    100.00% # Request fanout histogram
system.tol2bus.snoop_fanout::3                      0      0.00%    100.00% # Request fanout histogram
system.tol2bus.snoop_fanout::4                      0      0.00%    100.00% # Request fanout histogram
system.tol2bus.snoop_fanout::overflows              0      0.00%    100.00% # Request fanout histogram
system.tol2bus.snoop_fanout::min_value              0                       # Request fanout histogram
system.tol2bus.snoop_fanout::max_value              1                       # Request fanout histogram
system.tol2bus.snoop_fanout::total            8219058                       # Request fanout histogram
system.tol2bus.reqLayer0.occupancy         8263279500                       # Layer occupancy (ticks)
system.tol2bus.reqLayer0.utilization              0.7                       # Layer utilization (%)
system.tol2bus.respLayer0.occupancy           1501500                       # Layer occupancy (ticks)
system.tol2bus.respLayer0.utilization             0.0                       # Layer utilization (%)
system.tol2bus.respLayer1.occupancy        8202352500                       # Layer occupancy (ticks)
system.tol2bus.respLayer1.utilization             0.7                       # Layer utilization (%)

---------- End Simulation Statistics   ----------
