
---------- Begin Simulation Statistics ---------
sim_seconds                                  1.238771                       # Number of seconds simulated
sim_ticks                                1238771304500                       # Number of ticks simulated
final_tick                               1238771304500                       # Number of ticks from beginning of simulation (restored from checkpoints and never reset)
sim_freq                                 1000000000000                       # Frequency of simulated ticks
host_inst_rate                                 640968                       # Simulator instruction rate (inst/s)
host_op_rate                                   934452                       # Simulator op (including micro ops) rate (op/s)
host_tick_rate                             1588026363                       # Simulator tick rate (ticks/s)
host_mem_usage                                 832960                       # Number of bytes of host memory used
host_seconds                                   780.07                       # Real time elapsed on the host
sim_insts                                   500000001                       # Number of instructions simulated
sim_ops                                     728937824                       # Number of ops (including micro ops) simulated
system.voltage_domain.voltage                       1                       # Voltage in Volts
system.clk_domain.clock                          1000                       # Clock period in ticks
system.mem_ctrls.bytes_read::cpu.inst           65344                       # Number of bytes read from this memory
system.mem_ctrls.bytes_read::cpu.data       176202944                       # Number of bytes read from this memory
system.mem_ctrls.bytes_read::total          176268288                       # Number of bytes read from this memory
system.mem_ctrls.bytes_inst_read::cpu.inst        65344                       # Number of instructions bytes read from this memory
system.mem_ctrls.bytes_inst_read::total         65344                       # Number of instructions bytes read from this memory
system.mem_ctrls.bytes_written::writebacks     93039104                       # Number of bytes written to this memory
system.mem_ctrls.bytes_written::total        93039104                       # Number of bytes written to this memory
system.mem_ctrls.num_reads::cpu.inst             1021                       # Number of read requests responded to by this memory
system.mem_ctrls.num_reads::cpu.data          2753171                       # Number of read requests responded to by this memory
system.mem_ctrls.num_reads::total             2754192                       # Number of read requests responded to by this memory
system.mem_ctrls.num_writes::writebacks       1453736                       # Number of write requests responded to by this memory
system.mem_ctrls.num_writes::total            1453736                       # Number of write requests responded to by this memory
system.mem_ctrls.bw_read::cpu.inst              52749                       # Total read bandwidth from this memory (bytes/s)
system.mem_ctrls.bw_read::cpu.data          142240092                       # Total read bandwidth from this memory (bytes/s)
system.mem_ctrls.bw_read::total             142292841                       # Total read bandwidth from this memory (bytes/s)
system.mem_ctrls.bw_inst_read::cpu.inst         52749                       # Instruction read bandwidth from this memory (bytes/s)
system.mem_ctrls.bw_inst_read::total            52749                       # Instruction read bandwidth from this memory (bytes/s)
system.mem_ctrls.bw_write::writebacks        75105957                       # Write bandwidth from this memory (bytes/s)
system.mem_ctrls.bw_write::total             75105957                       # Write bandwidth from this memory (bytes/s)
system.mem_ctrls.bw_total::writebacks        75105957                       # Total bandwidth to/from this memory (bytes/s)
system.mem_ctrls.bw_total::cpu.inst             52749                       # Total bandwidth to/from this memory (bytes/s)
system.mem_ctrls.bw_total::cpu.data         142240092                       # Total bandwidth to/from this memory (bytes/s)
system.mem_ctrls.bw_total::total            217398798                       # Total bandwidth to/from this memory (bytes/s)
system.mem_ctrls.readReqs                     2754192                       # Number of read requests accepted
system.mem_ctrls.writeReqs                    1453736                       # Number of write requests accepted
system.mem_ctrls.readBursts                   2754192                       # Number of DRAM read bursts, including those serviced by the write queue
system.mem_ctrls.writeBursts                  1453736                       # Number of DRAM write bursts, including those merged in the write queue
system.mem_ctrls.bytesReadDRAM              176039552                       # Total number of bytes read from DRAM
system.mem_ctrls.bytesReadWrQ                  228736                       # Total number of bytes read from write queue
system.mem_ctrls.bytesWritten                93005888                       # Total number of bytes written to DRAM
system.mem_ctrls.bytesReadSys               176268288                       # Total read bytes from the system interface side
system.mem_ctrls.bytesWrittenSys             93039104                       # Total written bytes from the system interface side
system.mem_ctrls.servicedByWrQ                   3574                       # Number of DRAM read bursts serviced by the write queue
system.mem_ctrls.mergedWrBursts                   498                       # Number of DRAM write bursts merged with an existing one
system.mem_ctrls.neitherReadNorWriteReqs      1283619                       # Number of requests that are neither read nor write
system.mem_ctrls.perBankRdBursts::0            173652                       # Per bank write bursts
system.mem_ctrls.perBankRdBursts::1            172064                       # Per bank write bursts
system.mem_ctrls.perBankRdBursts::2            173075                       # Per bank write bursts
system.mem_ctrls.perBankRdBursts::3            169493                       # Per bank write bursts
system.mem_ctrls.perBankRdBursts::4            169652                       # Per bank write bursts
system.mem_ctrls.perBankRdBursts::5            168959                       # Per bank write bursts
system.mem_ctrls.perBankRdBursts::6            171130                       # Per bank write bursts
system.mem_ctrls.perBankRdBursts::7            170188                       # Per bank write bursts
system.mem_ctrls.perBankRdBursts::8            167903                       # Per bank write bursts
system.mem_ctrls.perBankRdBursts::9            168086                       # Per bank write bursts
system.mem_ctrls.perBankRdBursts::10           171692                       # Per bank write bursts
system.mem_ctrls.perBankRdBursts::11           172010                       # Per bank write bursts
system.mem_ctrls.perBankRdBursts::12           175171                       # Per bank write bursts
system.mem_ctrls.perBankRdBursts::13           174003                       # Per bank write bursts
system.mem_ctrls.perBankRdBursts::14           174459                       # Per bank write bursts
system.mem_ctrls.perBankRdBursts::15           179081                       # Per bank write bursts
system.mem_ctrls.perBankWrBursts::0             91686                       # Per bank write bursts
system.mem_ctrls.perBankWrBursts::1             91088                       # Per bank write bursts
system.mem_ctrls.perBankWrBursts::2             92573                       # Per bank write bursts
system.mem_ctrls.perBankWrBursts::3             90162                       # Per bank write bursts
system.mem_ctrls.perBankWrBursts::4             89662                       # Per bank write bursts
system.mem_ctrls.perBankWrBursts::5             88951                       # Per bank write bursts
system.mem_ctrls.perBankWrBursts::6             90538                       # Per bank write bursts
system.mem_ctrls.perBankWrBursts::7             90405                       # Per bank write bursts
system.mem_ctrls.perBankWrBursts::8             89330                       # Per bank write bursts
system.mem_ctrls.perBankWrBursts::9             89391                       # Per bank write bursts
system.mem_ctrls.perBankWrBursts::10            90760                       # Per bank write bursts
system.mem_ctrls.perBankWrBursts::11            90446                       # Per bank write bursts
system.mem_ctrls.perBankWrBursts::12            91197                       # Per bank write bursts
system.mem_ctrls.perBankWrBursts::13            91365                       # Per bank write bursts
system.mem_ctrls.perBankWrBursts::14            91880                       # Per bank write bursts
system.mem_ctrls.perBankWrBursts::15            93783                       # Per bank write bursts
system.mem_ctrls.numRdRetry                         0                       # Number of times read queue was full causing retry
system.mem_ctrls.numWrRetry                         0                       # Number of times write queue was full causing retry
system.mem_ctrls.totGap                  1237644618500                       # Total gap between requests
system.mem_ctrls.readPktSize::0                     0                       # Read request sizes (log2)
system.mem_ctrls.readPktSize::1                     0                       # Read request sizes (log2)
system.mem_ctrls.readPktSize::2                     0                       # Read request sizes (log2)
system.mem_ctrls.readPktSize::3                     0                       # Read request sizes (log2)
system.mem_ctrls.readPktSize::4                     0                       # Read request sizes (log2)
system.mem_ctrls.readPktSize::5                     0                       # Read request sizes (log2)
system.mem_ctrls.readPktSize::6               2754192                       # Read request sizes (log2)
system.mem_ctrls.writePktSize::0                    0                       # Write request sizes (log2)
system.mem_ctrls.writePktSize::1                    0                       # Write request sizes (log2)
system.mem_ctrls.writePktSize::2                    0                       # Write request sizes (log2)
system.mem_ctrls.writePktSize::3                    0                       # Write request sizes (log2)
system.mem_ctrls.writePktSize::4                    0                       # Write request sizes (log2)
system.mem_ctrls.writePktSize::5                    0                       # Write request sizes (log2)
system.mem_ctrls.writePktSize::6              1453736                       # Write request sizes (log2)
system.mem_ctrls.rdQLenPdf::0                 2715047                       # What read queue length does an incoming req see
system.mem_ctrls.rdQLenPdf::1                   30880                       # What read queue length does an incoming req see
system.mem_ctrls.rdQLenPdf::2                    2803                       # What read queue length does an incoming req see
system.mem_ctrls.rdQLenPdf::3                    1888                       # What read queue length does an incoming req see
system.mem_ctrls.rdQLenPdf::4                       0                       # What read queue length does an incoming req see
system.mem_ctrls.rdQLenPdf::5                       0                       # What read queue length does an incoming req see
system.mem_ctrls.rdQLenPdf::6                       0                       # What read queue length does an incoming req see
system.mem_ctrls.rdQLenPdf::7                       0                       # What read queue length does an incoming req see
system.mem_ctrls.rdQLenPdf::8                       0                       # What read queue length does an incoming req see
system.mem_ctrls.rdQLenPdf::9                       0                       # What read queue length does an incoming req see
system.mem_ctrls.rdQLenPdf::10                      0                       # What read queue length does an incoming req see
system.mem_ctrls.rdQLenPdf::11                      0                       # What read queue length does an incoming req see
system.mem_ctrls.rdQLenPdf::12                      0                       # What read queue length does an incoming req see
system.mem_ctrls.rdQLenPdf::13                      0                       # What read queue length does an incoming req see
system.mem_ctrls.rdQLenPdf::14                      0                       # What read queue length does an incoming req see
system.mem_ctrls.rdQLenPdf::15                      0                       # What read queue length does an incoming req see
system.mem_ctrls.rdQLenPdf::16                      0                       # What read queue length does an incoming req see
system.mem_ctrls.rdQLenPdf::17                      0                       # What read queue length does an incoming req see
system.mem_ctrls.rdQLenPdf::18                      0                       # What read queue length does an incoming req see
system.mem_ctrls.rdQLenPdf::19                      0                       # What read queue length does an incoming req see
system.mem_ctrls.rdQLenPdf::20                      0                       # What read queue length does an incoming req see
system.mem_ctrls.rdQLenPdf::21                      0                       # What read queue length does an incoming req see
system.mem_ctrls.rdQLenPdf::22                      0                       # What read queue length does an incoming req see
system.mem_ctrls.rdQLenPdf::23                      0                       # What read queue length does an incoming req see
system.mem_ctrls.rdQLenPdf::24                      0                       # What read queue length does an incoming req see
system.mem_ctrls.rdQLenPdf::25                      0                       # What read queue length does an incoming req see
system.mem_ctrls.rdQLenPdf::26                      0                       # What read queue length does an incoming req see
system.mem_ctrls.rdQLenPdf::27                      0                       # What read queue length does an incoming req see
system.mem_ctrls.rdQLenPdf::28                      0                       # What read queue length does an incoming req see
system.mem_ctrls.rdQLenPdf::29                      0                       # What read queue length does an incoming req see
system.mem_ctrls.rdQLenPdf::30                      0                       # What read queue length does an incoming req see
system.mem_ctrls.rdQLenPdf::31                      0                       # What read queue length does an incoming req see
system.mem_ctrls.wrQLenPdf::0                       1                       # What write queue length does an incoming req see
system.mem_ctrls.wrQLenPdf::1                       1                       # What write queue length does an incoming req see
system.mem_ctrls.wrQLenPdf::2                       1                       # What write queue length does an incoming req see
system.mem_ctrls.wrQLenPdf::3                       1                       # What write queue length does an incoming req see
system.mem_ctrls.wrQLenPdf::4                       1                       # What write queue length does an incoming req see
system.mem_ctrls.wrQLenPdf::5                       1                       # What write queue length does an incoming req see
system.mem_ctrls.wrQLenPdf::6                       1                       # What write queue length does an incoming req see
system.mem_ctrls.wrQLenPdf::7                       1                       # What write queue length does an incoming req see
system.mem_ctrls.wrQLenPdf::8                       1                       # What write queue length does an incoming req see
system.mem_ctrls.wrQLenPdf::9                       1                       # What write queue length does an incoming req see
system.mem_ctrls.wrQLenPdf::10                      1                       # What write queue length does an incoming req see
system.mem_ctrls.wrQLenPdf::11                      1                       # What write queue length does an incoming req see
system.mem_ctrls.wrQLenPdf::12                      1                       # What write queue length does an incoming req see
system.mem_ctrls.wrQLenPdf::13                      1                       # What write queue length does an incoming req see
system.mem_ctrls.wrQLenPdf::14                      1                       # What write queue length does an incoming req see
system.mem_ctrls.wrQLenPdf::15                  15560                       # What write queue length does an incoming req see
system.mem_ctrls.wrQLenPdf::16                  16336                       # What write queue length does an incoming req see
system.mem_ctrls.wrQLenPdf::17                  87776                       # What write queue length does an incoming req see
system.mem_ctrls.wrQLenPdf::18                  88157                       # What write queue length does an incoming req see
system.mem_ctrls.wrQLenPdf::19                  88552                       # What write queue length does an incoming req see
system.mem_ctrls.wrQLenPdf::20                  88835                       # What write queue length does an incoming req see
system.mem_ctrls.wrQLenPdf::21                  89003                       # What write queue length does an incoming req see
system.mem_ctrls.wrQLenPdf::22                  89278                       # What write queue length does an incoming req see
system.mem_ctrls.wrQLenPdf::23                  89008                       # What write queue length does an incoming req see
system.mem_ctrls.wrQLenPdf::24                  89276                       # What write queue length does an incoming req see
system.mem_ctrls.wrQLenPdf::25                  88891                       # What write queue length does an incoming req see
system.mem_ctrls.wrQLenPdf::26                  88844                       # What write queue length does an incoming req see
system.mem_ctrls.wrQLenPdf::27                  88873                       # What write queue length does an incoming req see
system.mem_ctrls.wrQLenPdf::28                  88860                       # What write queue length does an incoming req see
system.mem_ctrls.wrQLenPdf::29                  89200                       # What write queue length does an incoming req see
system.mem_ctrls.wrQLenPdf::30                  88837                       # What write queue length does an incoming req see
system.mem_ctrls.wrQLenPdf::31                  89099                       # What write queue length does an incoming req see
system.mem_ctrls.wrQLenPdf::32                  88822                       # What write queue length does an incoming req see
system.mem_ctrls.wrQLenPdf::33                     13                       # What write queue length does an incoming req see
system.mem_ctrls.wrQLenPdf::34                      3                       # What write queue length does an incoming req see
system.mem_ctrls.wrQLenPdf::35                      0                       # What write queue length does an incoming req see
system.mem_ctrls.wrQLenPdf::36                      0                       # What write queue length does an incoming req see
system.mem_ctrls.wrQLenPdf::37                      0                       # What write queue length does an incoming req see
system.mem_ctrls.wrQLenPdf::38                      0                       # What write queue length does an incoming req see
system.mem_ctrls.wrQLenPdf::39                      0                       # What write queue length does an incoming req see
system.mem_ctrls.wrQLenPdf::40                      0                       # What write queue length does an incoming req see
system.mem_ctrls.wrQLenPdf::41                      0                       # What write queue length does an incoming req see
system.mem_ctrls.wrQLenPdf::42                      0                       # What write queue length does an incoming req see
system.mem_ctrls.wrQLenPdf::43                      0                       # What write queue length does an incoming req see
system.mem_ctrls.wrQLenPdf::44                      0                       # What write queue length does an incoming req see
system.mem_ctrls.wrQLenPdf::45                      0                       # What write queue length does an incoming req see
system.mem_ctrls.wrQLenPdf::46                      0                       # What write queue length does an incoming req see
system.mem_ctrls.wrQLenPdf::47                      0                       # What write queue length does an incoming req see
system.mem_ctrls.wrQLenPdf::48                      0                       # What write queue length does an incoming req see
system.mem_ctrls.wrQLenPdf::49                      0                       # What write queue length does an incoming req see
system.mem_ctrls.wrQLenPdf::50                      0                       # What write queue length does an incoming req see
system.mem_ctrls.wrQLenPdf::51                      0                       # What write queue length does an incoming req see
system.mem_ctrls.wrQLenPdf::52                      0                       # What write queue length does an incoming req see
system.mem_ctrls.wrQLenPdf::53                      0                       # What write queue length does an incoming req see
system.mem_ctrls.wrQLenPdf::54                      0                       # What write queue length does an incoming req see
system.mem_ctrls.wrQLenPdf::55                      0                       # What write queue length does an incoming req see
system.mem_ctrls.wrQLenPdf::56                      0                       # What write queue length does an incoming req see
system.mem_ctrls.wrQLenPdf::57                      0                       # What write queue length does an incoming req see
system.mem_ctrls.wrQLenPdf::58                      0                       # What write queue length does an incoming req see
system.mem_ctrls.wrQLenPdf::59                      0                       # What write queue length does an incoming req see
system.mem_ctrls.wrQLenPdf::60                      0                       # What write queue length does an incoming req see
system.mem_ctrls.wrQLenPdf::61                      0                       # What write queue length does an incoming req see
system.mem_ctrls.wrQLenPdf::62                      0                       # What write queue length does an incoming req see
system.mem_ctrls.wrQLenPdf::63                      0                       # What write queue length does an incoming req see
system.mem_ctrls.bytesPerActivate::samples       861151                       # Bytes accessed per row activation
system.mem_ctrls.bytesPerActivate::mean    312.425393                       # Bytes accessed per row activation
system.mem_ctrls.bytesPerActivate::gmean   167.500377                       # Bytes accessed per row activation
system.mem_ctrls.bytesPerActivate::stdev   351.940215                       # Bytes accessed per row activation
system.mem_ctrls.bytesPerActivate::0-127       416550     48.37%     48.37% # Bytes accessed per row activation
system.mem_ctrls.bytesPerActivate::128-255       134088     15.57%     63.94% # Bytes accessed per row activation
system.mem_ctrls.bytesPerActivate::256-383        38887      4.52%     68.46% # Bytes accessed per row activation
system.mem_ctrls.bytesPerActivate::384-511        32886      3.82%     72.28% # Bytes accessed per row activation
system.mem_ctrls.bytesPerActivate::512-639        79231      9.20%     81.48% # Bytes accessed per row activation
system.mem_ctrls.bytesPerActivate::640-767        10439      1.21%     82.69% # Bytes accessed per row activation
system.mem_ctrls.bytesPerActivate::768-895         8645      1.00%     83.69% # Bytes accessed per row activation
system.mem_ctrls.bytesPerActivate::896-1023        10166      1.18%     84.87% # Bytes accessed per row activation
system.mem_ctrls.bytesPerActivate::1024-1151       130259     15.13%    100.00% # Bytes accessed per row activation
system.mem_ctrls.bytesPerActivate::total       861151                       # Bytes accessed per row activation
system.mem_ctrls.rdPerTurnAround::samples        88820                       # Reads before turning the bus around for writes
system.mem_ctrls.rdPerTurnAround::mean      30.967924                       # Reads before turning the bus around for writes
system.mem_ctrls.rdPerTurnAround::gmean     27.687688                       # Reads before turning the bus around for writes
system.mem_ctrls.rdPerTurnAround::stdev     84.652423                       # Reads before turning the bus around for writes
system.mem_ctrls.rdPerTurnAround::0-511         88764     99.94%     99.94% # Reads before turning the bus around for writes
system.mem_ctrls.rdPerTurnAround::512-1023           45      0.05%     99.99% # Reads before turning the bus around for writes
system.mem_ctrls.rdPerTurnAround::1024-1535            2      0.00%     99.99% # Reads before turning the bus around for writes
system.mem_ctrls.rdPerTurnAround::1536-2047            2      0.00%     99.99% # Reads before turning the bus around for writes
system.mem_ctrls.rdPerTurnAround::5120-5631            1      0.00%     99.99% # Reads before turning the bus around for writes
system.mem_ctrls.rdPerTurnAround::5632-6143            1      0.00%     99.99% # Reads before turning the bus around for writes
system.mem_ctrls.rdPerTurnAround::6656-7167            1      0.00%    100.00% # Reads before turning the bus around for writes
system.mem_ctrls.rdPerTurnAround::8704-9215            1      0.00%    100.00% # Reads before turning the bus around for writes
system.mem_ctrls.rdPerTurnAround::10752-11263            1      0.00%    100.00% # Reads before turning the bus around for writes
system.mem_ctrls.rdPerTurnAround::11264-11775            1      0.00%    100.00% # Reads before turning the bus around for writes
system.mem_ctrls.rdPerTurnAround::11776-12287            1      0.00%    100.00% # Reads before turning the bus around for writes
system.mem_ctrls.rdPerTurnAround::total         88820                       # Reads before turning the bus around for writes
system.mem_ctrls.wrPerTurnAround::samples        88820                       # Writes before turning the bus around for reads
system.mem_ctrls.wrPerTurnAround::mean      16.361371                       # Writes before turning the bus around for reads
system.mem_ctrls.wrPerTurnAround::gmean     16.344231                       # Writes before turning the bus around for reads
system.mem_ctrls.wrPerTurnAround::stdev      0.768179                       # Writes before turning the bus around for reads
system.mem_ctrls.wrPerTurnAround::16            72474     81.60%     81.60% # Writes before turning the bus around for reads
system.mem_ctrls.wrPerTurnAround::17              773      0.87%     82.47% # Writes before turning the bus around for reads
system.mem_ctrls.wrPerTurnAround::18            15412     17.35%     99.82% # Writes before turning the bus around for reads
system.mem_ctrls.wrPerTurnAround::19              151      0.17%     99.99% # Writes before turning the bus around for reads
system.mem_ctrls.wrPerTurnAround::20                6      0.01%    100.00% # Writes before turning the bus around for reads
system.mem_ctrls.wrPerTurnAround::21                2      0.00%    100.00% # Writes before turning the bus around for reads
system.mem_ctrls.wrPerTurnAround::22                1      0.00%    100.00% # Writes before turning the bus around for reads
system.mem_ctrls.wrPerTurnAround::23                1      0.00%    100.00% # Writes before turning the bus around for reads
system.mem_ctrls.wrPerTurnAround::total         88820                       # Writes before turning the bus around for reads
system.mem_ctrls.totQLat                  25668365500                       # Total ticks spent queuing
system.mem_ctrls.totMemAccLat             77242453000                       # Total ticks spent from burst creation until serviced by the DRAM
system.mem_ctrls.totBusLat                13753090000                       # Total ticks spent in databus transfers
system.mem_ctrls.avgQLat                      9331.85                       # Average queueing delay per DRAM burst
system.mem_ctrls.avgBusLat                    5000.00                       # Average bus latency per DRAM burst
system.mem_ctrls.avgMemAccLat                28081.85                       # Average memory access latency per DRAM burst
system.mem_ctrls.avgRdBW                       142.11                       # Average DRAM read bandwidth in MiByte/s
system.mem_ctrls.avgWrBW                        75.08                       # Average achieved write bandwidth in MiByte/s
system.mem_ctrls.avgRdBWSys                    142.29                       # Average system read bandwidth in MiByte/s
system.mem_ctrls.avgWrBWSys                     75.11                       # Average system write bandwidth in MiByte/s
system.mem_ctrls.peakBW                      12800.00                       # Theoretical peak bandwidth in MiByte/s
system.mem_ctrls.busUtil                         1.70                       # Data bus utilization in percentage
system.mem_ctrls.busUtilRead                     1.11                       # Data bus utilization in percentage for reads
system.mem_ctrls.busUtilWrite                    0.59                       # Data bus utilization in percentage for writes
system.mem_ctrls.avgRdQLen                       1.00                       # Average read queue length when enqueuing
system.mem_ctrls.avgWrQLen                      24.87                       # Average write queue length when enqueuing
system.mem_ctrls.readRowHits                  2165095                       # Number of row buffer hits during reads
system.mem_ctrls.writeRowHits                 1177589                       # Number of row buffer hits during writes
system.mem_ctrls.readRowHitRate                 78.71                       # Row buffer hit rate for reads
system.mem_ctrls.writeRowHitRate                81.03                       # Row buffer hit rate for writes
system.mem_ctrls.avgGap                     294122.10                       # Average gap between requests
system.mem_ctrls.pageHitRate                    79.51                       # Row buffer hit rate, read and write combined
system.mem_ctrls_0.actEnergy               3215366280                       # Energy for activate commands per rank (pJ)
system.mem_ctrls_0.preEnergy               1754416125                       # Energy for precharge commands per rank (pJ)
system.mem_ctrls_0.readEnergy             10672061400                       # Energy for read commands per rank (pJ)
system.mem_ctrls_0.writeEnergy             4698421200                       # Energy for write commands per rank (pJ)
system.mem_ctrls_0.refreshEnergy          80910370320                       # Energy for refresh commands per rank (pJ)
system.mem_ctrls_0.actBackEnergy         335099955060                       # Energy for active background per rank (pJ)
system.mem_ctrls_0.preBackEnergy         449314228500                       # Energy for precharge background per rank (pJ)
system.mem_ctrls_0.totalEnergy           885664818885                       # Total energy per rank (pJ)
system.mem_ctrls_0.averagePower            714.955437                       # Core power per rank (mW)
system.mem_ctrls_0.memoryStateTime::IDLE 745063107750                       # Time in different power states
system.mem_ctrls_0.memoryStateTime::REF   41365220000                       # Time in different power states
system.mem_ctrls_0.memoryStateTime::PRE_PDN            0                       # Time in different power states
system.mem_ctrls_0.memoryStateTime::ACT  452340948500                       # Time in different power states
system.mem_ctrls_0.memoryStateTime::ACT_PDN            0                       # Time in different power states
system.mem_ctrls_1.actEnergy               3294935280                       # Energy for activate commands per rank (pJ)
system.mem_ctrls_1.preEnergy               1797831750                       # Energy for precharge commands per rank (pJ)
system.mem_ctrls_1.readEnergy             10782759000                       # Energy for read commands per rank (pJ)
system.mem_ctrls_1.writeEnergy             4718424960                       # Energy for write commands per rank (pJ)
system.mem_ctrls_1.refreshEnergy          80910370320                       # Energy for refresh commands per rank (pJ)
system.mem_ctrls_1.actBackEnergy         342288568485                       # Energy for active background per rank (pJ)
system.mem_ctrls_1.preBackEnergy         443008427250                       # Energy for precharge background per rank (pJ)
system.mem_ctrls_1.totalEnergy           886801317045                       # Total energy per rank (pJ)
system.mem_ctrls_1.averagePower            715.872878                       # Core power per rank (mW)
system.mem_ctrls_1.memoryStateTime::IDLE 734510455250                       # Time in different power states
system.mem_ctrls_1.memoryStateTime::REF   41365220000                       # Time in different power states
system.mem_ctrls_1.memoryStateTime::PRE_PDN            0                       # Time in different power states
system.mem_ctrls_1.memoryStateTime::ACT  462893601000                       # Time in different power states
system.mem_ctrls_1.memoryStateTime::ACT_PDN            0                       # Time in different power states
system.cpu_voltage_domain.voltage                   1                       # Voltage in Volts
system.cpu_clk_domain.clock                       500                       # Clock period in ticks
system.cpu.apic_clk_domain.clock                 8000                       # Clock period in ticks
system.cpu.workload.num_syscalls                   89                       # Number of system calls
system.cpu.numCycles                       2477542609                       # number of cpu cycles simulated
system.cpu.numWorkItemsStarted                      0                       # number of work items this cpu started
system.cpu.numWorkItemsCompleted                    0                       # number of work items this cpu completed
system.cpu.committedInsts                   500000001                       # Number of instructions committed
system.cpu.committedOps                     728937824                       # Number of ops (including micro ops) committed
system.cpu.num_int_alu_accesses             727310589                       # Number of integer alu accesses
system.cpu.num_fp_alu_accesses                    843                       # Number of float alu accesses
system.cpu.num_func_calls                     1427761                       # number of times a function call or return occured
system.cpu.num_conditional_control_insts     32105501                       # number of instructions that are conditional controls
system.cpu.num_int_insts                    727310589                       # number of integer instructions
system.cpu.num_fp_insts                           843                       # number of float instructions
system.cpu.num_int_register_reads          1714991297                       # number of times the integer registers were read
system.cpu.num_int_register_writes          612733141                       # number of times the integer registers were written
system.cpu.num_fp_register_reads                 1319                       # number of times the floating registers were read
system.cpu.num_fp_register_writes                 577                       # number of times the floating registers were written
system.cpu.num_cc_register_reads            181720629                       # number of times the CC registers were read
system.cpu.num_cc_register_writes           264518979                       # number of times the CC registers were written
system.cpu.num_mem_refs                     304821783                       # number of memory refs
system.cpu.num_load_insts                   228115222                       # Number of load instructions
system.cpu.num_store_insts                   76706561                       # Number of store instructions
system.cpu.num_idle_cycles                          0                       # Number of idle cycles
system.cpu.num_busy_cycles                 2477542609                       # Number of busy cycles
system.cpu.not_idle_fraction                        1                       # Percentage of non-idle cycles
system.cpu.idle_fraction                            0                       # Percentage of idle cycles
system.cpu.Branches                          38073397                       # Number of branches fetched
system.cpu.op_class::No_OpClass                960306      0.13%      0.13% # Class of executed instruction
system.cpu.op_class::IntAlu                 423024114     58.03%     58.16% # Class of executed instruction
system.cpu.op_class::IntMult                   130951      0.02%     58.18% # Class of executed instruction
system.cpu.op_class::IntDiv                       140      0.00%     58.18% # Class of executed instruction
system.cpu.op_class::FloatAdd                     530      0.00%     58.18% # Class of executed instruction
system.cpu.op_class::FloatCmp                       0      0.00%     58.18% # Class of executed instruction
system.cpu.op_class::FloatCvt                       0      0.00%     58.18% # Class of executed instruction
system.cpu.op_class::FloatMult                      0      0.00%     58.18% # Class of executed instruction
system.cpu.op_class::FloatDiv                       0      0.00%     58.18% # Class of executed instruction
system.cpu.op_class::FloatSqrt                      0      0.00%     58.18% # Class of executed instruction
system.cpu.op_class::SimdAdd                        0      0.00%     58.18% # Class of executed instruction
system.cpu.op_class::SimdAddAcc                     0      0.00%     58.18% # Class of executed instruction
system.cpu.op_class::SimdAlu                        0      0.00%     58.18% # Class of executed instruction
system.cpu.op_class::SimdCmp                        0      0.00%     58.18% # Class of executed instruction
system.cpu.op_class::SimdCvt                        0      0.00%     58.18% # Class of executed instruction
system.cpu.op_class::SimdMisc                       0      0.00%     58.18% # Class of executed instruction
system.cpu.op_class::SimdMult                       0      0.00%     58.18% # Class of executed instruction
system.cpu.op_class::SimdMultAcc                    0      0.00%     58.18% # Class of executed instruction
system.cpu.op_class::SimdShift                      0      0.00%     58.18% # Class of executed instruction
system.cpu.op_class::SimdShiftAcc                   0      0.00%     58.18% # Class of executed instruction
system.cpu.op_class::SimdSqrt                       0      0.00%     58.18% # Class of executed instruction
system.cpu.op_class::SimdFloatAdd                   0      0.00%     58.18% # Class of executed instruction
system.cpu.op_class::SimdFloatAlu                   0      0.00%     58.18% # Class of executed instruction
system.cpu.op_class::SimdFloatCmp                   0      0.00%     58.18% # Class of executed instruction
system.cpu.op_class::SimdFloatCvt                   0      0.00%     58.18% # Class of executed instruction
system.cpu.op_class::SimdFloatDiv                   0      0.00%     58.18% # Class of executed instruction
system.cpu.op_class::SimdFloatMisc                  0      0.00%     58.18% # Class of executed instruction
system.cpu.op_class::SimdFloatMult                  0      0.00%     58.18% # Class of executed instruction
system.cpu.op_class::SimdFloatMultAcc               0      0.00%     58.18% # Class of executed instruction
system.cpu.op_class::SimdFloatSqrt                  0      0.00%     58.18% # Class of executed instruction
system.cpu.op_class::MemRead                228115222     31.29%     89.48% # Class of executed instruction
system.cpu.op_class::MemWrite                76706561     10.52%    100.00% # Class of executed instruction
system.cpu.op_class::IprAccess                      0      0.00%    100.00% # Class of executed instruction
system.cpu.op_class::InstPrefetch                   0      0.00%    100.00% # Class of executed instruction
system.cpu.op_class::total                  728937824                       # Class of executed instruction
system.cpu.dcache.tags.replacements           5467723                       # number of replacements
system.cpu.dcache.tags.tagsinuse           505.951430                       # Cycle average of tags in use
system.cpu.dcache.tags.total_refs           299353558                       # Total number of references to valid blocks.
system.cpu.dcache.tags.sampled_refs           5468235                       # Sample count of references to valid blocks.
system.cpu.dcache.tags.avg_refs             54.744092                       # Average number of references to valid blocks.
system.cpu.dcache.tags.warmup_cycle       21691921500                       # Cycle when the warmup percentage was hit.
system.cpu.dcache.tags.occ_blocks::cpu.data   505.951430                       # Average occupied blocks per requestor
system.cpu.dcache.tags.occ_percent::cpu.data     0.988186                       # Average percentage of cache occupancy
system.cpu.dcache.tags.occ_percent::total     0.988186                       # Average percentage of cache occupancy
system.cpu.dcache.tags.occ_task_id_blocks::1024          512                       # Occupied blocks per task id
system.cpu.dcache.tags.age_task_id_blocks_1024::0            3                       # Occupied blocks per task id
system.cpu.dcache.tags.age_task_id_blocks_1024::1           36                       # Occupied blocks per task id
system.cpu.dcache.tags.age_task_id_blocks_1024::2          246                       # Occupied blocks per task id
system.cpu.dcache.tags.age_task_id_blocks_1024::3          227                       # Occupied blocks per task id
system.cpu.dcache.tags.occ_task_id_percent::1024            1                       # Percentage of cache occupancy per task id
system.cpu.dcache.tags.tag_accesses         310290028                       # Number of tag accesses
system.cpu.dcache.tags.data_accesses        310290028                       # Number of data accesses
system.cpu.dcache.ReadReq_hits::cpu.data    224492228                       # number of ReadReq hits
system.cpu.dcache.ReadReq_hits::total       224492228                       # number of ReadReq hits
system.cpu.dcache.WriteReq_hits::cpu.data     74861330                       # number of WriteReq hits
system.cpu.dcache.WriteReq_hits::total       74861330                       # number of WriteReq hits
system.cpu.dcache.demand_hits::cpu.data     299353558                       # number of demand (read+write) hits
system.cpu.dcache.demand_hits::total        299353558                       # number of demand (read+write) hits
system.cpu.dcache.overall_hits::cpu.data    299353558                       # number of overall hits
system.cpu.dcache.overall_hits::total       299353558                       # number of overall hits
system.cpu.dcache.ReadReq_misses::cpu.data      3557468                       # number of ReadReq misses
system.cpu.dcache.ReadReq_misses::total       3557468                       # number of ReadReq misses
system.cpu.dcache.WriteReq_misses::cpu.data      1845231                       # number of WriteReq misses
system.cpu.dcache.WriteReq_misses::total      1845231                       # number of WriteReq misses
system.cpu.dcache.SoftPFReq_misses::cpu.data        65536                       # number of SoftPFReq misses
system.cpu.dcache.SoftPFReq_misses::total        65536                       # number of SoftPFReq misses
system.cpu.dcache.demand_misses::cpu.data      5402699                       # number of demand (read+write) misses
system.cpu.dcache.demand_misses::total        5402699                       # number of demand (read+write) misses
system.cpu.dcache.overall_misses::cpu.data      5468235                       # number of overall misses
system.cpu.dcache.overall_misses::total       5468235                       # number of overall misses
system.cpu.dcache.ReadReq_miss_latency::cpu.data 134205969500                       # number of ReadReq miss cycles
system.cpu.dcache.ReadReq_miss_latency::total 134205969500                       # number of ReadReq miss cycles
system.cpu.dcache.WriteReq_miss_latency::cpu.data 116680383500                       # number of WriteReq miss cycles
system.cpu.dcache.WriteReq_miss_latency::total 116680383500                       # number of WriteReq miss cycles
system.cpu.dcache.demand_miss_latency::cpu.data 250886353000                       # number of demand (read+write) miss cycles
system.cpu.dcache.demand_miss_latency::total 250886353000                       # number of demand (read+write) miss cycles
system.cpu.dcache.overall_miss_latency::cpu.data 250886353000                       # number of overall miss cycles
system.cpu.dcache.overall_miss_latency::total 250886353000                       # number of overall miss cycles
system.cpu.dcache.ReadReq_accesses::cpu.data    228049696                       # number of ReadReq accesses(hits+misses)
system.cpu.dcache.ReadReq_accesses::total    228049696                       # number of ReadReq accesses(hits+misses)
system.cpu.dcache.WriteReq_accesses::cpu.data     76706561                       # number of WriteReq accesses(hits+misses)
system.cpu.dcache.WriteReq_accesses::total     76706561                       # number of WriteReq accesses(hits+misses)
system.cpu.dcache.SoftPFReq_accesses::cpu.data        65536                       # number of SoftPFReq accesses(hits+misses)
system.cpu.dcache.SoftPFReq_accesses::total        65536                       # number of SoftPFReq accesses(hits+misses)
system.cpu.dcache.demand_accesses::cpu.data    304756257                       # number of demand (read+write) accesses
system.cpu.dcache.demand_accesses::total    304756257                       # number of demand (read+write) accesses
system.cpu.dcache.overall_accesses::cpu.data    304821793                       # number of overall (read+write) accesses
system.cpu.dcache.overall_accesses::total    304821793                       # number of overall (read+write) accesses
system.cpu.dcache.ReadReq_miss_rate::cpu.data     0.015600                       # miss rate for ReadReq accesses
system.cpu.dcache.ReadReq_miss_rate::total     0.015600                       # miss rate for ReadReq accesses
system.cpu.dcache.WriteReq_miss_rate::cpu.data     0.024056                       # miss rate for WriteReq accesses
system.cpu.dcache.WriteReq_miss_rate::total     0.024056                       # miss rate for WriteReq accesses
system.cpu.dcache.SoftPFReq_miss_rate::cpu.data            1                       # miss rate for SoftPFReq accesses
system.cpu.dcache.SoftPFReq_miss_rate::total            1                       # miss rate for SoftPFReq accesses
system.cpu.dcache.demand_miss_rate::cpu.data     0.017728                       # miss rate for demand accesses
system.cpu.dcache.demand_miss_rate::total     0.017728                       # miss rate for demand accesses
system.cpu.dcache.overall_miss_rate::cpu.data     0.017939                       # miss rate for overall accesses
system.cpu.dcache.overall_miss_rate::total     0.017939                       # miss rate for overall accesses
system.cpu.dcache.ReadReq_avg_miss_latency::cpu.data 37725.137514                       # average ReadReq miss latency
system.cpu.dcache.ReadReq_avg_miss_latency::total 37725.137514                       # average ReadReq miss latency
system.cpu.dcache.WriteReq_avg_miss_latency::cpu.data 63233.483233                       # average WriteReq miss latency
system.cpu.dcache.WriteReq_avg_miss_latency::total 63233.483233                       # average WriteReq miss latency
system.cpu.dcache.demand_avg_miss_latency::cpu.data 46437.225727                       # average overall miss latency
system.cpu.dcache.demand_avg_miss_latency::total 46437.225727                       # average overall miss latency
system.cpu.dcache.overall_avg_miss_latency::cpu.data 45880.682341                       # average overall miss latency
system.cpu.dcache.overall_avg_miss_latency::total 45880.682341                       # average overall miss latency
system.cpu.dcache.blocked_cycles::no_mshrs      1191486                       # number of cycles access was blocked
system.cpu.dcache.blocked_cycles::no_targets            0                       # number of cycles access was blocked
system.cpu.dcache.blocked::no_mshrs             19772                       # number of cycles access was blocked
system.cpu.dcache.blocked::no_targets               0                       # number of cycles access was blocked
system.cpu.dcache.avg_blocked_cycles::no_mshrs    60.261279                       # average number of cycles each access was blocked
system.cpu.dcache.avg_blocked_cycles::no_targets          nan                       # average number of cycles each access was blocked
system.cpu.dcache.fast_writes                       0                       # number of fast writes performed
system.cpu.dcache.cache_copies                      0                       # number of cache copies performed
system.cpu.dcache.writebacks::writebacks      2792206                       # number of writebacks
system.cpu.dcache.writebacks::total           2792206                       # number of writebacks
system.cpu.dcache.ReadReq_mshr_misses::cpu.data      3557468                       # number of ReadReq MSHR misses
system.cpu.dcache.ReadReq_mshr_misses::total      3557468                       # number of ReadReq MSHR misses
system.cpu.dcache.WriteReq_mshr_misses::cpu.data      1845231                       # number of WriteReq MSHR misses
system.cpu.dcache.WriteReq_mshr_misses::total      1845231                       # number of WriteReq MSHR misses
system.cpu.dcache.SoftPFReq_mshr_misses::cpu.data        65536                       # number of SoftPFReq MSHR misses
system.cpu.dcache.SoftPFReq_mshr_misses::total        65536                       # number of SoftPFReq MSHR misses
system.cpu.dcache.demand_mshr_misses::cpu.data      5402699                       # number of demand (read+write) MSHR misses
system.cpu.dcache.demand_mshr_misses::total      5402699                       # number of demand (read+write) MSHR misses
system.cpu.dcache.overall_mshr_misses::cpu.data      5468235                       # number of overall MSHR misses
system.cpu.dcache.overall_mshr_misses::total      5468235                       # number of overall MSHR misses
system.cpu.dcache.ReadReq_mshr_miss_latency::cpu.data 130648501500                       # number of ReadReq MSHR miss cycles
system.cpu.dcache.ReadReq_mshr_miss_latency::total 130648501500                       # number of ReadReq MSHR miss cycles
system.cpu.dcache.WriteReq_mshr_miss_latency::cpu.data 114835152500                       # number of WriteReq MSHR miss cycles
system.cpu.dcache.WriteReq_mshr_miss_latency::total 114835152500                       # number of WriteReq MSHR miss cycles
system.cpu.dcache.SoftPFReq_mshr_miss_latency::cpu.data   5590734421                       # number of SoftPFReq MSHR miss cycles
system.cpu.dcache.SoftPFReq_mshr_miss_latency::total   5590734421                       # number of SoftPFReq MSHR miss cycles
system.cpu.dcache.demand_mshr_miss_latency::cpu.data 245483654000                       # number of demand (read+write) MSHR miss cycles
system.cpu.dcache.demand_mshr_miss_latency::total 245483654000                       # number of demand (read+write) MSHR miss cycles
system.cpu.dcache.overall_mshr_miss_latency::cpu.data 251074388421                       # number of overall MSHR miss cycles
system.cpu.dcache.overall_mshr_miss_latency::total 251074388421                       # number of overall MSHR miss cycles
system.cpu.dcache.ReadReq_mshr_miss_rate::cpu.data     0.015600                       # mshr miss rate for ReadReq accesses
system.cpu.dcache.ReadReq_mshr_miss_rate::total     0.015600                       # mshr miss rate for ReadReq accesses
system.cpu.dcache.WriteReq_mshr_miss_rate::cpu.data     0.024056                       # mshr miss rate for WriteReq accesses
system.cpu.dcache.WriteReq_mshr_miss_rate::total     0.024056                       # mshr miss rate for WriteReq accesses
system.cpu.dcache.SoftPFReq_mshr_miss_rate::cpu.data            1                       # mshr miss rate for SoftPFReq accesses
system.cpu.dcache.SoftPFReq_mshr_miss_rate::total            1                       # mshr miss rate for SoftPFReq accesses
system.cpu.dcache.demand_mshr_miss_rate::cpu.data     0.017728                       # mshr miss rate for demand accesses
system.cpu.dcache.demand_mshr_miss_rate::total     0.017728                       # mshr miss rate for demand accesses
system.cpu.dcache.overall_mshr_miss_rate::cpu.data     0.017939                       # mshr miss rate for overall accesses
system.cpu.dcache.overall_mshr_miss_rate::total     0.017939                       # mshr miss rate for overall accesses
system.cpu.dcache.ReadReq_avg_mshr_miss_latency::cpu.data 36725.137514                       # average ReadReq mshr miss latency
system.cpu.dcache.ReadReq_avg_mshr_miss_latency::total 36725.137514                       # average ReadReq mshr miss latency
system.cpu.dcache.WriteReq_avg_mshr_miss_latency::cpu.data 62233.483233                       # average WriteReq mshr miss latency
system.cpu.dcache.WriteReq_avg_mshr_miss_latency::total 62233.483233                       # average WriteReq mshr miss latency
system.cpu.dcache.SoftPFReq_avg_mshr_miss_latency::cpu.data 85307.837234                       # average SoftPFReq mshr miss latency
system.cpu.dcache.SoftPFReq_avg_mshr_miss_latency::total 85307.837234                       # average SoftPFReq mshr miss latency
system.cpu.dcache.demand_avg_mshr_miss_latency::cpu.data 45437.225727                       # average overall mshr miss latency
system.cpu.dcache.demand_avg_mshr_miss_latency::total 45437.225727                       # average overall mshr miss latency
system.cpu.dcache.overall_avg_mshr_miss_latency::cpu.data 45915.069199                       # average overall mshr miss latency
system.cpu.dcache.overall_avg_mshr_miss_latency::total 45915.069199                       # average overall mshr miss latency
system.cpu.dcache.no_allocate_misses                0                       # Number of misses that were no-allocate
system.cpu.dtb_walker_cache.tags.replacements            0                       # number of replacements
system.cpu.dtb_walker_cache.tags.tagsinuse            0                       # Cycle average of tags in use
system.cpu.dtb_walker_cache.tags.total_refs            0                       # Total number of references to valid blocks.
system.cpu.dtb_walker_cache.tags.sampled_refs            0                       # Sample count of references to valid blocks.
system.cpu.dtb_walker_cache.tags.avg_refs          nan                       # Average number of references to valid blocks.
system.cpu.dtb_walker_cache.tags.warmup_cycle            0                       # Cycle when the warmup percentage was hit.
system.cpu.dtb_walker_cache.tags.tag_accesses            0                       # Number of tag accesses
system.cpu.dtb_walker_cache.tags.data_accesses            0                       # Number of data accesses
system.cpu.dtb_walker_cache.blocked_cycles::no_mshrs            0                       # number of cycles access was blocked
system.cpu.dtb_walker_cache.blocked_cycles::no_targets            0                       # number of cycles access was blocked
system.cpu.dtb_walker_cache.blocked::no_mshrs            0                       # number of cycles access was blocked
system.cpu.dtb_walker_cache.blocked::no_targets            0                       # number of cycles access was blocked
system.cpu.dtb_walker_cache.avg_blocked_cycles::no_mshrs          nan                       # average number of cycles each access was blocked
system.cpu.dtb_walker_cache.avg_blocked_cycles::no_targets          nan                       # average number of cycles each access was blocked
system.cpu.dtb_walker_cache.fast_writes             0                       # number of fast writes performed
system.cpu.dtb_walker_cache.cache_copies            0                       # number of cache copies performed
system.cpu.dtb_walker_cache.no_allocate_misses            0                       # Number of misses that were no-allocate
system.cpu.icache.tags.replacements               705                       # number of replacements
system.cpu.icache.tags.tagsinuse           389.153697                       # Cycle average of tags in use
system.cpu.icache.tags.total_refs           687817637                       # Total number of references to valid blocks.
system.cpu.icache.tags.sampled_refs              1168                       # Sample count of references to valid blocks.
system.cpu.icache.tags.avg_refs          588884.963185                       # Average number of references to valid blocks.
system.cpu.icache.tags.warmup_cycle                 0                       # Cycle when the warmup percentage was hit.
system.cpu.icache.tags.occ_blocks::cpu.inst   389.153697                       # Average occupied blocks per requestor
system.cpu.icache.tags.occ_percent::cpu.inst     0.760066                       # Average percentage of cache occupancy
system.cpu.icache.tags.occ_percent::total     0.760066                       # Average percentage of cache occupancy
system.cpu.icache.tags.occ_task_id_blocks::1024          463                       # Occupied blocks per task id
system.cpu.icache.tags.age_task_id_blocks_1024::3            3                       # Occupied blocks per task id
system.cpu.icache.tags.age_task_id_blocks_1024::4          460                       # Occupied blocks per task id
system.cpu.icache.tags.occ_task_id_percent::1024     0.904297                       # Percentage of cache occupancy per task id
system.cpu.icache.tags.tag_accesses         687819973                       # Number of tag accesses
system.cpu.icache.tags.data_accesses        687819973                       # Number of data accesses
system.cpu.icache.ReadReq_hits::cpu.inst    687817637                       # number of ReadReq hits
system.cpu.icache.ReadReq_hits::total       687817637                       # number of ReadReq hits
system.cpu.icache.demand_hits::cpu.inst     687817637                       # number of demand (read+write) hits
system.cpu.icache.demand_hits::total        687817637                       # number of demand (read+write) hits
system.cpu.icache.overall_hits::cpu.inst    687817637                       # number of overall hits
system.cpu.icache.overall_hits::total       687817637                       # number of overall hits
system.cpu.icache.ReadReq_misses::cpu.inst         1168                       # number of ReadReq misses
system.cpu.icache.ReadReq_misses::total          1168                       # number of ReadReq misses
system.cpu.icache.demand_misses::cpu.inst         1168                       # number of demand (read+write) misses
system.cpu.icache.demand_misses::total           1168                       # number of demand (read+write) misses
system.cpu.icache.overall_misses::cpu.inst         1168                       # number of overall misses
system.cpu.icache.overall_misses::total          1168                       # number of overall misses
system.cpu.icache.ReadReq_miss_latency::cpu.inst     82082500                       # number of ReadReq miss cycles
system.cpu.icache.ReadReq_miss_latency::total     82082500                       # number of ReadReq miss cycles
system.cpu.icache.demand_miss_latency::cpu.inst     82082500                       # number of demand (read+write) miss cycles
system.cpu.icache.demand_miss_latency::total     82082500                       # number of demand (read+write) miss cycles
system.cpu.icache.overall_miss_latency::cpu.inst     82082500                       # number of overall miss cycles
system.cpu.icache.overall_miss_latency::total     82082500                       # number of overall miss cycles
system.cpu.icache.ReadReq_accesses::cpu.inst    687818805                       # number of ReadReq accesses(hits+misses)
system.cpu.icache.ReadReq_accesses::total    687818805                       # number of ReadReq accesses(hits+misses)
system.cpu.icache.demand_accesses::cpu.inst    687818805                       # number of demand (read+write) accesses
system.cpu.icache.demand_accesses::total    687818805                       # number of demand (read+write) accesses
system.cpu.icache.overall_accesses::cpu.inst    687818805                       # number of overall (read+write) accesses
system.cpu.icache.overall_accesses::total    687818805                       # number of overall (read+write) accesses
system.cpu.icache.ReadReq_miss_rate::cpu.inst     0.000002                       # miss rate for ReadReq accesses
system.cpu.icache.ReadReq_miss_rate::total     0.000002                       # miss rate for ReadReq accesses
system.cpu.icache.demand_miss_rate::cpu.inst     0.000002                       # miss rate for demand accesses
system.cpu.icache.demand_miss_rate::total     0.000002                       # miss rate for demand accesses
system.cpu.icache.overall_miss_rate::cpu.inst     0.000002                       # miss rate for overall accesses
system.cpu.icache.overall_miss_rate::total     0.000002                       # miss rate for overall accesses
system.cpu.icache.ReadReq_avg_miss_latency::cpu.inst 70276.113014                       # average ReadReq miss latency
system.cpu.icache.ReadReq_avg_miss_latency::total 70276.113014                       # average ReadReq miss latency
system.cpu.icache.demand_avg_miss_latency::cpu.inst 70276.113014                       # average overall miss latency
system.cpu.icache.demand_avg_miss_latency::total 70276.113014                       # average overall miss latency
system.cpu.icache.overall_avg_miss_latency::cpu.inst 70276.113014                       # average overall miss latency
system.cpu.icache.overall_avg_miss_latency::total 70276.113014                       # average overall miss latency
system.cpu.icache.blocked_cycles::no_mshrs            0                       # number of cycles access was blocked
system.cpu.icache.blocked_cycles::no_targets            0                       # number of cycles access was blocked
system.cpu.icache.blocked::no_mshrs                 0                       # number of cycles access was blocked
system.cpu.icache.blocked::no_targets               0                       # number of cycles access was blocked
system.cpu.icache.avg_blocked_cycles::no_mshrs          nan                       # average number of cycles each access was blocked
system.cpu.icache.avg_blocked_cycles::no_targets          nan                       # average number of cycles each access was blocked
system.cpu.icache.fast_writes                       0                       # number of fast writes performed
system.cpu.icache.cache_copies                      0                       # number of cache copies performed
system.cpu.icache.writebacks::writebacks          705                       # number of writebacks
system.cpu.icache.writebacks::total               705                       # number of writebacks
system.cpu.icache.ReadReq_mshr_misses::cpu.inst         1168                       # number of ReadReq MSHR misses
system.cpu.icache.ReadReq_mshr_misses::total         1168                       # number of ReadReq MSHR misses
system.cpu.icache.demand_mshr_misses::cpu.inst         1168                       # number of demand (read+write) MSHR misses
system.cpu.icache.demand_mshr_misses::total         1168                       # number of demand (read+write) MSHR misses
system.cpu.icache.overall_mshr_misses::cpu.inst         1168                       # number of overall MSHR misses
system.cpu.icache.overall_mshr_misses::total         1168                       # number of overall MSHR misses
system.cpu.icache.ReadReq_mshr_miss_latency::cpu.inst     80914500                       # number of ReadReq MSHR miss cycles
system.cpu.icache.ReadReq_mshr_miss_latency::total     80914500                       # number of ReadReq MSHR miss cycles
system.cpu.icache.demand_mshr_miss_latency::cpu.inst     80914500                       # number of demand (read+write) MSHR miss cycles
system.cpu.icache.demand_mshr_miss_latency::total     80914500                       # number of demand (read+write) MSHR miss cycles
system.cpu.icache.overall_mshr_miss_latency::cpu.inst     80914500                       # number of overall MSHR miss cycles
system.cpu.icache.overall_mshr_miss_latency::total     80914500                       # number of overall MSHR miss cycles
system.cpu.icache.ReadReq_mshr_miss_rate::cpu.inst     0.000002                       # mshr miss rate for ReadReq accesses
system.cpu.icache.ReadReq_mshr_miss_rate::total     0.000002                       # mshr miss rate for ReadReq accesses
system.cpu.icache.demand_mshr_miss_rate::cpu.inst     0.000002                       # mshr miss rate for demand accesses
system.cpu.icache.demand_mshr_miss_rate::total     0.000002                       # mshr miss rate for demand accesses
system.cpu.icache.overall_mshr_miss_rate::cpu.inst     0.000002                       # mshr miss rate for overall accesses
system.cpu.icache.overall_mshr_miss_rate::total     0.000002                       # mshr miss rate for overall accesses
system.cpu.icache.ReadReq_avg_mshr_miss_latency::cpu.inst 69276.113014                       # average ReadReq mshr miss latency
system.cpu.icache.ReadReq_avg_mshr_miss_latency::total 69276.113014                       # average ReadReq mshr miss latency
system.cpu.icache.demand_avg_mshr_miss_latency::cpu.inst 69276.113014                       # average overall mshr miss latency
system.cpu.icache.demand_avg_mshr_miss_latency::total 69276.113014                       # average overall mshr miss latency
system.cpu.icache.overall_avg_mshr_miss_latency::cpu.inst 69276.113014                       # average overall mshr miss latency
system.cpu.icache.overall_avg_mshr_miss_latency::total 69276.113014                       # average overall mshr miss latency
system.cpu.icache.no_allocate_misses                0                       # Number of misses that were no-allocate
system.cpu.itb_walker_cache.tags.replacements            0                       # number of replacements
system.cpu.itb_walker_cache.tags.tagsinuse            0                       # Cycle average of tags in use
system.cpu.itb_walker_cache.tags.total_refs            0                       # Total number of references to valid blocks.
system.cpu.itb_walker_cache.tags.sampled_refs            0                       # Sample count of references to valid blocks.
system.cpu.itb_walker_cache.tags.avg_refs          nan                       # Average number of references to valid blocks.
system.cpu.itb_walker_cache.tags.warmup_cycle            0                       # Cycle when the warmup percentage was hit.
system.cpu.itb_walker_cache.tags.tag_accesses            0                       # Number of tag accesses
system.cpu.itb_walker_cache.tags.data_accesses            0                       # Number of data accesses
system.cpu.itb_walker_cache.blocked_cycles::no_mshrs            0                       # number of cycles access was blocked
system.cpu.itb_walker_cache.blocked_cycles::no_targets            0                       # number of cycles access was blocked
system.cpu.itb_walker_cache.blocked::no_mshrs            0                       # number of cycles access was blocked
system.cpu.itb_walker_cache.blocked::no_targets            0                       # number of cycles access was blocked
system.cpu.itb_walker_cache.avg_blocked_cycles::no_mshrs          nan                       # average number of cycles each access was blocked
system.cpu.itb_walker_cache.avg_blocked_cycles::no_targets          nan                       # average number of cycles each access was blocked
system.cpu.itb_walker_cache.fast_writes             0                       # number of fast writes performed
system.cpu.itb_walker_cache.cache_copies            0                       # number of cache copies performed
system.cpu.itb_walker_cache.no_allocate_misses            0                       # Number of misses that were no-allocate
system.l2.tags.replacements                   2750130                       # number of replacements
system.l2.tags.tagsinuse                 15987.968134                       # Cycle average of tags in use
system.l2.tags.total_refs                     6303770                       # Total number of references to valid blocks.
system.l2.tags.sampled_refs                   2766510                       # Sample count of references to valid blocks.
system.l2.tags.avg_refs                      2.278600                       # Average number of references to valid blocks.
system.l2.tags.warmup_cycle               45313319500                       # Cycle when the warmup percentage was hit.
system.l2.tags.occ_blocks::writebacks     7894.763232                       # Average occupied blocks per requestor
system.l2.tags.occ_blocks::cpu.inst          8.045233                       # Average occupied blocks per requestor
system.l2.tags.occ_blocks::cpu.data       8085.159669                       # Average occupied blocks per requestor
system.l2.tags.occ_percent::writebacks       0.481858                       # Average percentage of cache occupancy
system.l2.tags.occ_percent::cpu.inst         0.000491                       # Average percentage of cache occupancy
system.l2.tags.occ_percent::cpu.data         0.493479                       # Average percentage of cache occupancy
system.l2.tags.occ_percent::total            0.975828                       # Average percentage of cache occupancy
system.l2.tags.occ_task_id_blocks::1024         16380                       # Occupied blocks per task id
system.l2.tags.age_task_id_blocks_1024::2           14                       # Occupied blocks per task id
system.l2.tags.age_task_id_blocks_1024::3          132                       # Occupied blocks per task id
system.l2.tags.age_task_id_blocks_1024::4        16234                       # Occupied blocks per task id
system.l2.tags.occ_task_id_percent::1024     0.999756                       # Percentage of cache occupancy per task id
system.l2.tags.tag_accesses                  15549571                       # Number of tag accesses
system.l2.tags.data_accesses                 15549571                       # Number of data accesses
system.l2.WritebackDirty_hits::writebacks      2792206                       # number of WritebackDirty hits
system.l2.WritebackDirty_hits::total          2792206                       # number of WritebackDirty hits
system.l2.WritebackClean_hits::writebacks          705                       # number of WritebackClean hits
system.l2.WritebackClean_hits::total              705                       # number of WritebackClean hits
system.l2.ReadExReq_hits::cpu.data             502209                       # number of ReadExReq hits
system.l2.ReadExReq_hits::total                502209                       # number of ReadExReq hits
system.l2.ReadCleanReq_hits::cpu.inst             147                       # number of ReadCleanReq hits
system.l2.ReadCleanReq_hits::total                147                       # number of ReadCleanReq hits
system.l2.ReadSharedReq_hits::cpu.data        2212855                       # number of ReadSharedReq hits
system.l2.ReadSharedReq_hits::total           2212855                       # number of ReadSharedReq hits
system.l2.demand_hits::cpu.inst                   147                       # number of demand (read+write) hits
system.l2.demand_hits::cpu.data               2715064                       # number of demand (read+write) hits
system.l2.demand_hits::total                  2715211                       # number of demand (read+write) hits
system.l2.overall_hits::cpu.inst                  147                       # number of overall hits
system.l2.overall_hits::cpu.data              2715064                       # number of overall hits
system.l2.overall_hits::total                 2715211                       # number of overall hits
system.l2.ReadExReq_misses::cpu.data          1343022                       # number of ReadExReq misses
system.l2.ReadExReq_misses::total             1343022                       # number of ReadExReq misses
system.l2.ReadCleanReq_misses::cpu.inst          1021                       # number of ReadCleanReq misses
system.l2.ReadCleanReq_misses::total             1021                       # number of ReadCleanReq misses
system.l2.ReadSharedReq_misses::cpu.data      1410149                       # number of ReadSharedReq misses
system.l2.ReadSharedReq_misses::total         1410149                       # number of ReadSharedReq misses
system.l2.demand_misses::cpu.inst                1021                       # number of demand (read+write) misses
system.l2.demand_misses::cpu.data             2753171                       # number of demand (read+write) misses
system.l2.demand_misses::total                2754192                       # number of demand (read+write) misses
system.l2.overall_misses::cpu.inst               1021                       # number of overall misses
system.l2.overall_misses::cpu.data            2753171                       # number of overall misses
system.l2.overall_misses::total               2754192                       # number of overall misses
system.l2.ReadExReq_miss_latency::cpu.data 106793960500                       # number of ReadExReq miss cycles
system.l2.ReadExReq_miss_latency::total  106793960500                       # number of ReadExReq miss cycles
system.l2.ReadCleanReq_miss_latency::cpu.inst     77615000                       # number of ReadCleanReq miss cycles
system.l2.ReadCleanReq_miss_latency::total     77615000                       # number of ReadCleanReq miss cycles
system.l2.ReadSharedReq_miss_latency::cpu.data 107562532500                       # number of ReadSharedReq miss cycles
system.l2.ReadSharedReq_miss_latency::total 107562532500                       # number of ReadSharedReq miss cycles
system.l2.demand_miss_latency::cpu.inst      77615000                       # number of demand (read+write) miss cycles
system.l2.demand_miss_latency::cpu.data  214356493000                       # number of demand (read+write) miss cycles
system.l2.demand_miss_latency::total     214434108000                       # number of demand (read+write) miss cycles
system.l2.overall_miss_latency::cpu.inst     77615000                       # number of overall miss cycles
system.l2.overall_miss_latency::cpu.data 214356493000                       # number of overall miss cycles
system.l2.overall_miss_latency::total    214434108000                       # number of overall miss cycles
system.l2.WritebackDirty_accesses::writebacks      2792206                       # number of WritebackDirty accesses(hits+misses)
system.l2.WritebackDirty_accesses::total      2792206                       # number of WritebackDirty accesses(hits+misses)
system.l2.WritebackClean_accesses::writebacks          705                       # number of WritebackClean accesses(hits+misses)
system.l2.WritebackClean_accesses::total          705                       # number of WritebackClean accesses(hits+misses)
system.l2.ReadExReq_accesses::cpu.data        1845231                       # number of ReadExReq accesses(hits+misses)
system.l2.ReadExReq_accesses::total           1845231                       # number of ReadExReq accesses(hits+misses)
system.l2.ReadCleanReq_accesses::cpu.inst         1168                       # number of ReadCleanReq accesses(hits+misses)
system.l2.ReadCleanReq_accesses::total           1168                       # number of ReadCleanReq accesses(hits+misses)
system.l2.ReadSharedReq_accesses::cpu.data      3623004                       # number of ReadSharedReq accesses(hits+misses)
system.l2.ReadSharedReq_accesses::total       3623004                       # number of ReadSharedReq accesses(hits+misses)
system.l2.demand_accesses::cpu.inst              1168                       # number of demand (read+write) accesses
system.l2.demand_accesses::cpu.data           5468235                       # number of demand (read+write) accesses
system.l2.demand_accesses::total              5469403                       # number of demand (read+write) accesses
system.l2.overall_accesses::cpu.inst             1168                       # number of overall (read+write) accesses
system.l2.overall_accesses::cpu.data          5468235                       # number of overall (read+write) accesses
system.l2.overall_accesses::total             5469403                       # number of overall (read+write) accesses
system.l2.ReadExReq_miss_rate::cpu.data      0.727834                       # miss rate for ReadExReq accesses
system.l2.ReadExReq_miss_rate::total         0.727834                       # miss rate for ReadExReq accesses
system.l2.ReadCleanReq_miss_rate::cpu.inst     0.874144                       # miss rate for ReadCleanReq accesses
system.l2.ReadCleanReq_miss_rate::total      0.874144                       # miss rate for ReadCleanReq accesses
system.l2.ReadSharedReq_miss_rate::cpu.data     0.389221                       # miss rate for ReadSharedReq accesses
system.l2.ReadSharedReq_miss_rate::total     0.389221                       # miss rate for ReadSharedReq accesses
system.l2.demand_miss_rate::cpu.inst         0.874144                       # miss rate for demand accesses
system.l2.demand_miss_rate::cpu.data         0.503484                       # miss rate for demand accesses
system.l2.demand_miss_rate::total            0.503564                       # miss rate for demand accesses
system.l2.overall_miss_rate::cpu.inst        0.874144                       # miss rate for overall accesses
system.l2.overall_miss_rate::cpu.data        0.503484                       # miss rate for overall accesses
system.l2.overall_miss_rate::total           0.503564                       # miss rate for overall accesses
system.l2.ReadExReq_avg_miss_latency::cpu.data 79517.655333                       # average ReadExReq miss latency
system.l2.ReadExReq_avg_miss_latency::total 79517.655333                       # average ReadExReq miss latency
system.l2.ReadCleanReq_avg_miss_latency::cpu.inst 76018.609207                       # average ReadCleanReq miss latency
system.l2.ReadCleanReq_avg_miss_latency::total 76018.609207                       # average ReadCleanReq miss latency
system.l2.ReadSharedReq_avg_miss_latency::cpu.data 76277.423520                       # average ReadSharedReq miss latency
system.l2.ReadSharedReq_avg_miss_latency::total 76277.423520                       # average ReadSharedReq miss latency
system.l2.demand_avg_miss_latency::cpu.inst 76018.609207                       # average overall miss latency
system.l2.demand_avg_miss_latency::cpu.data 77858.038240                       # average overall miss latency
system.l2.demand_avg_miss_latency::total 77857.356350                       # average overall miss latency
system.l2.overall_avg_miss_latency::cpu.inst 76018.609207                       # average overall miss latency
system.l2.overall_avg_miss_latency::cpu.data 77858.038240                       # average overall miss latency
system.l2.overall_avg_miss_latency::total 77857.356350                       # average overall miss latency
system.l2.blocked_cycles::no_mshrs                  0                       # number of cycles access was blocked
system.l2.blocked_cycles::no_targets                0                       # number of cycles access was blocked
system.l2.blocked::no_mshrs                         0                       # number of cycles access was blocked
system.l2.blocked::no_targets                       0                       # number of cycles access was blocked
system.l2.avg_blocked_cycles::no_mshrs            nan                       # average number of cycles each access was blocked
system.l2.avg_blocked_cycles::no_targets          nan                       # average number of cycles each access was blocked
system.l2.fast_writes                               0                       # number of fast writes performed
system.l2.cache_copies                              0                       # number of cache copies performed
system.l2.writebacks::writebacks              1453736                       # number of writebacks
system.l2.writebacks::total                   1453736                       # number of writebacks
system.l2.CleanEvict_mshr_misses::writebacks        22295                       # number of CleanEvict MSHR misses
system.l2.CleanEvict_mshr_misses::total         22295                       # number of CleanEvict MSHR misses
system.l2.ReadExReq_mshr_misses::cpu.data      1343022                       # number of ReadExReq MSHR misses
system.l2.ReadExReq_mshr_misses::total        1343022                       # number of ReadExReq MSHR misses
system.l2.ReadCleanReq_mshr_misses::cpu.inst         1021                       # number of ReadCleanReq MSHR misses
system.l2.ReadCleanReq_mshr_misses::total         1021                       # number of ReadCleanReq MSHR misses
system.l2.ReadSharedReq_mshr_misses::cpu.data      1410149                       # number of ReadSharedReq MSHR misses
system.l2.ReadSharedReq_mshr_misses::total      1410149                       # number of ReadSharedReq MSHR misses
system.l2.demand_mshr_misses::cpu.inst           1021                       # number of demand (read+write) MSHR misses
system.l2.demand_mshr_misses::cpu.data        2753171                       # number of demand (read+write) MSHR misses
system.l2.demand_mshr_misses::total           2754192                       # number of demand (read+write) MSHR misses
system.l2.overall_mshr_misses::cpu.inst          1021                       # number of overall MSHR misses
system.l2.overall_mshr_misses::cpu.data       2753171                       # number of overall MSHR misses
system.l2.overall_mshr_misses::total          2754192                       # number of overall MSHR misses
system.l2.ReadExReq_mshr_miss_latency::cpu.data  93363740500                       # number of ReadExReq MSHR miss cycles
system.l2.ReadExReq_mshr_miss_latency::total  93363740500                       # number of ReadExReq MSHR miss cycles
system.l2.ReadCleanReq_mshr_miss_latency::cpu.inst     67405000                       # number of ReadCleanReq MSHR miss cycles
system.l2.ReadCleanReq_mshr_miss_latency::total     67405000                       # number of ReadCleanReq MSHR miss cycles
system.l2.ReadSharedReq_mshr_miss_latency::cpu.data  93461042500                       # number of ReadSharedReq MSHR miss cycles
system.l2.ReadSharedReq_mshr_miss_latency::total  93461042500                       # number of ReadSharedReq MSHR miss cycles
system.l2.demand_mshr_miss_latency::cpu.inst     67405000                       # number of demand (read+write) MSHR miss cycles
system.l2.demand_mshr_miss_latency::cpu.data 186824783000                       # number of demand (read+write) MSHR miss cycles
system.l2.demand_mshr_miss_latency::total 186892188000                       # number of demand (read+write) MSHR miss cycles
system.l2.overall_mshr_miss_latency::cpu.inst     67405000                       # number of overall MSHR miss cycles
system.l2.overall_mshr_miss_latency::cpu.data 186824783000                       # number of overall MSHR miss cycles
system.l2.overall_mshr_miss_latency::total 186892188000                       # number of overall MSHR miss cycles
system.l2.CleanEvict_mshr_miss_rate::writebacks          inf                       # mshr miss rate for CleanEvict accesses
system.l2.CleanEvict_mshr_miss_rate::total          inf                       # mshr miss rate for CleanEvict accesses
system.l2.ReadExReq_mshr_miss_rate::cpu.data     0.727834                       # mshr miss rate for ReadExReq accesses
system.l2.ReadExReq_mshr_miss_rate::total     0.727834                       # mshr miss rate for ReadExReq accesses
system.l2.ReadCleanReq_mshr_miss_rate::cpu.inst     0.874144                       # mshr miss rate for ReadCleanReq accesses
system.l2.ReadCleanReq_mshr_miss_rate::total     0.874144                       # mshr miss rate for ReadCleanReq accesses
system.l2.ReadSharedReq_mshr_miss_rate::cpu.data     0.389221                       # mshr miss rate for ReadSharedReq accesses
system.l2.ReadSharedReq_mshr_miss_rate::total     0.389221                       # mshr miss rate for ReadSharedReq accesses
system.l2.demand_mshr_miss_rate::cpu.inst     0.874144                       # mshr miss rate for demand accesses
system.l2.demand_mshr_miss_rate::cpu.data     0.503484                       # mshr miss rate for demand accesses
system.l2.demand_mshr_miss_rate::total       0.503564                       # mshr miss rate for demand accesses
system.l2.overall_mshr_miss_rate::cpu.inst     0.874144                       # mshr miss rate for overall accesses
system.l2.overall_mshr_miss_rate::cpu.data     0.503484                       # mshr miss rate for overall accesses
system.l2.overall_mshr_miss_rate::total      0.503564                       # mshr miss rate for overall accesses
system.l2.ReadExReq_avg_mshr_miss_latency::cpu.data 69517.655333                       # average ReadExReq mshr miss latency
system.l2.ReadExReq_avg_mshr_miss_latency::total 69517.655333                       # average ReadExReq mshr miss latency
system.l2.ReadCleanReq_avg_mshr_miss_latency::cpu.inst 66018.609207                       # average ReadCleanReq mshr miss latency
system.l2.ReadCleanReq_avg_mshr_miss_latency::total 66018.609207                       # average ReadCleanReq mshr miss latency
system.l2.ReadSharedReq_avg_mshr_miss_latency::cpu.data 66277.423520                       # average ReadSharedReq mshr miss latency
system.l2.ReadSharedReq_avg_mshr_miss_latency::total 66277.423520                       # average ReadSharedReq mshr miss latency
system.l2.demand_avg_mshr_miss_latency::cpu.inst 66018.609207                       # average overall mshr miss latency
system.l2.demand_avg_mshr_miss_latency::cpu.data 67858.038240                       # average overall mshr miss latency
system.l2.demand_avg_mshr_miss_latency::total 67857.356350                       # average overall mshr miss latency
system.l2.overall_avg_mshr_miss_latency::cpu.inst 66018.609207                       # average overall mshr miss latency
system.l2.overall_avg_mshr_miss_latency::cpu.data 67858.038240                       # average overall mshr miss latency
system.l2.overall_avg_mshr_miss_latency::total 67857.356350                       # average overall mshr miss latency
system.l2.no_allocate_misses                        0                       # Number of misses that were no-allocate
system.membus.trans_dist::ReadResp            1411170                       # Transaction distribution
system.membus.trans_dist::WritebackDirty      1453736                       # Transaction distribution
system.membus.trans_dist::CleanEvict          1283619                       # Transaction distribution
system.membus.trans_dist::ReadExReq           1343022                       # Transaction distribution
system.membus.trans_dist::ReadExResp          1343022                       # Transaction distribution
system.membus.trans_dist::ReadSharedReq       1411170                       # Transaction distribution
system.membus.pkt_count_system.l2.mem_side::system.mem_ctrls.port      8245739                       # Packet count per connected master and slave (bytes)
system.membus.pkt_count_system.l2.mem_side::total      8245739                       # Packet count per connected master and slave (bytes)
system.membus.pkt_count::total                8245739                       # Packet count per connected master and slave (bytes)
system.membus.pkt_size_system.l2.mem_side::system.mem_ctrls.port    269307392                       # Cumulative packet size per connected master and slave (bytes)
system.membus.pkt_size_system.l2.mem_side::total    269307392                       # Cumulative packet size per connected master and slave (bytes)
system.membus.pkt_size::total               269307392                       # Cumulative packet size per connected master and slave (bytes)
system.membus.snoops                                0                       # Total snoops (count)
system.membus.snoop_fanout::samples           5491547                       # Request fanout histogram
system.membus.snoop_fanout::mean                    0                       # Request fanout histogram
system.membus.snoop_fanout::stdev                   0                       # Request fanout histogram
system.membus.snoop_fanout::underflows              0      0.00%      0.00% # Request fanout histogram
system.membus.snoop_fanout::0                 5491547    100.00%    100.00% # Request fanout histogram
system.membus.snoop_fanout::1                       0      0.00%    100.00% # Request fanout histogram
system.membus.snoop_fanout::overflows               0      0.00%    100.00% # Request fanout histogram
system.membus.snoop_fanout::min_value               0                       # Request fanout histogram
system.membus.snoop_fanout::max_value               0                       # Request fanout histogram
system.membus.snoop_fanout::total             5491547                       # Request fanout histogram
system.membus.reqLayer2.occupancy         11337708000                       # Layer occupancy (ticks)
system.membus.reqLayer2.utilization               0.9                       # Layer utilization (%)
system.membus.respLayer1.occupancy        14618015250                       # Layer occupancy (ticks)
system.membus.respLayer1.utilization              1.2                       # Layer utilization (%)
system.tol2bus.snoop_filter.tot_requests     10937831                       # Total number of requests made to the snoop filter.
system.tol2bus.snoop_filter.hit_single_requests      5468428                       # Number of requests hitting in the snoop filter with a single holder of the requested data.
system.tol2bus.snoop_filter.hit_multi_requests            1                       # Number of requests hitting in the snoop filter with multiple (>1) holders of the requested data.
system.tol2bus.snoop_filter.tot_snoops          35070                       # Total number of snoops made to the snoop filter.
system.tol2bus.snoop_filter.hit_single_snoops        35070                       # Number of snoops hitting in the snoop filter with a single holder of the requested data.
system.tol2bus.snoop_filter.hit_multi_snoops            0                       # Number of snoops hitting in the snoop filter with multiple (>1) holders of the requested data.
system.tol2bus.trans_dist::ReadResp           3624172                       # Transaction distribution
system.tol2bus.trans_dist::WritebackDirty      4245942                       # Transaction distribution
system.tol2bus.trans_dist::WritebackClean          705                       # Transaction distribution
system.tol2bus.trans_dist::CleanEvict         3971910                       # Transaction distribution
system.tol2bus.trans_dist::ReadExReq          1845231                       # Transaction distribution
system.tol2bus.trans_dist::ReadExResp         1845231                       # Transaction distribution
system.tol2bus.trans_dist::ReadCleanReq          1168                       # Transaction distribution
system.tol2bus.trans_dist::ReadSharedReq      3623004                       # Transaction distribution
system.tol2bus.pkt_count_system.cpu.icache.mem_side::system.l2.cpu_side         3041                       # Packet count per connected master and slave (bytes)
system.tol2bus.pkt_count_system.cpu.dcache.mem_side::system.l2.cpu_side     16404192                       # Packet count per connected master and slave (bytes)
system.tol2bus.pkt_count::total              16407233                       # Packet count per connected master and slave (bytes)
system.tol2bus.pkt_size_system.cpu.icache.mem_side::system.l2.cpu_side       119872                       # Cumulative packet size per connected master and slave (bytes)
system.tol2bus.pkt_size_system.cpu.dcache.mem_side::system.l2.cpu_side    528668224                       # Cumulative packet size per connected master and slave (bytes)
system.tol2bus.pkt_size::total              528788096                       # Cumulative packet size per connected master and slave (bytes)
system.tol2bus.snoops                         2750130                       # Total snoops (count)
system.tol2bus.snoop_fanout::samples          8219533                       # Request fanout histogram
system.tol2bus.snoop_fanout::mean            0.004267                       # Request fanout histogram
system.tol2bus.snoop_fanout::stdev           0.065181                       # Request fanout histogram
system.tol2bus.snoop_fanout::underflows             0      0.00%      0.00% # Request fanout histogram
system.tol2bus.snoop_fanout::0                8184462     99.57%     99.57% # Request fanout histogram
system.tol2bus.snoop_fanout::1                  35071      0.43%    100.00% # Request fanout histogram
system.tol2bus.snoop_fanout::2                      0      0.00%    100.00% # Request fanout histogram
system.tol2bus.snoop_fanout::3                      0      0.00%    100.00% # Request fanout histogram
system.tol2bus.snoop_fanout::4                      0      0.00%    100.00% # Request fanout histogram
system.tol2bus.snoop_fanout::overflows              0      0.00%    100.00% # Request fanout histogram
system.tol2bus.snoop_fanout::min_value              0                       # Request fanout histogram
system.tol2bus.snoop_fanout::max_value              1                       # Request fanout histogram
system.tol2bus.snoop_fanout::total            8219533                       # Request fanout histogram
system.tol2bus.reqLayer0.occupancy         8261826500                       # Layer occupancy (ticks)
system.tol2bus.reqLayer0.utilization              0.7                       # Layer utilization (%)
system.tol2bus.respLayer0.occupancy           1752000                       # Layer occupancy (ticks)
system.tol2bus.respLayer0.utilization             0.0                       # Layer utilization (%)
system.tol2bus.respLayer1.occupancy        8202352500                       # Layer occupancy (ticks)
system.tol2bus.respLayer1.utilization             0.7                       # Layer utilization (%)

---------- End Simulation Statistics   ----------
